<net xmlns:xsi="http://www.w3.org/2001/XMLSchema-instance" version="1.9" junctionCornerDetail="5" limitTurnSpeed="5.50" xsi:noNamespaceSchemaLocation="http://sumo.dlr.de/xsd/net_file.xsd">

    <location netOffset="-520685.18,-4493046.28" convBoundary="0.00,0.00,3130.47,6201.27" origBoundary="-8.769606,40.550163,-8.320615,40.742848" projParameter="+proj=utm +zone=29 +ellps=WGS84 +datum=WGS84 +units=m +no_defs" />

    <type id="highway.bridleway" priority="1" numLanes="1" speed="2.78" allow="pedestrian" oneway="1" width="2.00" />
    <type id="highway.bus_guideway" priority="1" numLanes="1" speed="27.78" allow="bus" oneway="1" />
    <type id="highway.cycleway" priority="1" numLanes="1" speed="8.33" allow="bicycle" oneway="0" width="1.00" />
    <type id="highway.footway" priority="1" numLanes="1" speed="2.78" allow="pedestrian" oneway="1" width="2.00" />
    <type id="highway.ford" priority="1" numLanes="1" speed="2.78" allow="army" oneway="0" />
    <type id="highway.living_street" priority="2" numLanes="1" speed="2.78" disallow="tram rail_urban rail rail_electric rail_fast ship" oneway="0" />
    <type id="highway.motorway" priority="14" numLanes="2" speed="39.44" allow="private emergency authority army vip passenger hov taxi bus coach delivery truck trailer motorcycle evehicle custom1 custom2" oneway="1" />
    <type id="highway.motorway_link" priority="9" numLanes="1" speed="22.22" allow="private emergency authority army vip passenger hov taxi bus coach delivery truck trailer motorcycle evehicle custom1 custom2" oneway="1" />
    <type id="highway.path" priority="1" numLanes="1" speed="2.78" allow="pedestrian bicycle" oneway="0" width="2.00" />
    <type id="highway.pedestrian" priority="1" numLanes="1" speed="2.78" allow="pedestrian" oneway="1" width="2.00" />
    <type id="highway.primary" priority="12" numLanes="2" speed="27.78" disallow="tram rail_urban rail rail_electric rail_fast ship" oneway="0" />
    <type id="highway.primary_link" priority="7" numLanes="1" speed="22.22" disallow="tram rail_urban rail rail_electric rail_fast ship" oneway="0" />
    <type id="highway.raceway" priority="15" numLanes="2" speed="83.33" allow="vip" oneway="0" />
    <type id="highway.residential" priority="3" numLanes="1" speed="13.89" disallow="tram rail_urban rail rail_electric rail_fast ship" oneway="0" />
    <type id="highway.secondary" priority="11" numLanes="1" speed="27.78" disallow="tram rail_urban rail rail_electric rail_fast ship" oneway="0" />
    <type id="highway.secondary_link" priority="6" numLanes="1" speed="22.22" disallow="tram rail_urban rail rail_electric rail_fast ship" oneway="0" />
    <type id="highway.service" priority="1" numLanes="1" speed="5.56" allow="pedestrian delivery bicycle" oneway="0" />
    <type id="highway.stairs" priority="1" numLanes="1" speed="1.39" allow="pedestrian" oneway="1" width="2.00" />
    <type id="highway.step" priority="1" numLanes="1" speed="1.39" allow="pedestrian" oneway="1" width="2.00" />
    <type id="highway.steps" priority="1" numLanes="1" speed="1.39" allow="pedestrian" oneway="1" width="2.00" />
    <type id="highway.tertiary" priority="10" numLanes="1" speed="22.22" disallow="tram rail_urban rail rail_electric rail_fast ship" oneway="0" />
    <type id="highway.tertiary_link" priority="5" numLanes="1" speed="22.22" disallow="tram rail_urban rail rail_electric rail_fast ship" oneway="0" />
    <type id="highway.track" priority="1" numLanes="1" speed="5.56" allow="pedestrian motorcycle moped bicycle" oneway="0" />
    <type id="highway.trunk" priority="13" numLanes="2" speed="27.78" disallow="pedestrian bicycle tram rail_urban rail rail_electric rail_fast ship" oneway="0" />
    <type id="highway.trunk_link" priority="8" numLanes="1" speed="22.22" disallow="pedestrian bicycle tram rail_urban rail rail_electric rail_fast ship" oneway="0" />
    <type id="highway.unclassified" priority="4" numLanes="1" speed="13.89" disallow="tram rail_urban rail rail_electric rail_fast ship" oneway="0" />
    <type id="highway.unsurfaced" priority="1" numLanes="1" speed="8.33" disallow="tram rail_urban rail rail_electric rail_fast ship" oneway="0" />
    <type id="railway.highspeed" priority="21" numLanes="1" speed="69.44" allow="rail_fast" oneway="1" />
    <type id="railway.light_rail" priority="19" numLanes="1" speed="27.78" allow="rail_urban" oneway="1" />
    <type id="railway.preserved" priority="16" numLanes="1" speed="27.78" allow="rail" oneway="1" />
    <type id="railway.rail" priority="20" numLanes="1" speed="44.44" allow="rail" oneway="1" />
    <type id="railway.subway" priority="18" numLanes="1" speed="27.78" allow="rail_urban" oneway="1" />
    <type id="railway.tram" priority="17" numLanes="1" speed="13.89" allow="tram" oneway="1" />

    <edge id=":1207224830_0" function="internal">
        <lane id=":1207224830_0_0" index="0" disallow="tram rail_urban rail rail_electric rail_fast ship" speed="19.67" length="3.76" shape="505.42,3554.67 504.31,3554.65 503.55,3554.73 502.82,3554.97 501.81,3555.45" />
    </edge>
    <edge id=":1207224830_1" function="internal">
        <lane id=":1207224830_1_0" index="0" disallow="tram rail_urban rail rail_electric rail_fast ship" speed="13.649999999999999" length="2.34" shape="500.40,3552.58 501.83,3552.77 502.54,3553.31" />
    </edge>
    <edge id=":1207224830_2" function="internal">
        <lane id=":1207224830_2_0" index="0" disallow="tram rail_urban rail rail_electric rail_fast ship" speed="13.649999999999999" length="2.34" shape="502.54,3553.31 502.53,3554.20 501.81,3555.45" />
    </edge>
    <edge id=":1207224840_0" function="internal">
        <lane id=":1207224840_0_0" index="0" disallow="tram rail_urban rail rail_electric rail_fast ship" speed="16.53" length="9.07" shape="331.22,2276.68 328.73,2276.52 326.79,2277.19 325.39,2278.69 324.53,2281.01" />
    </edge>
    <edge id=":1207224840_1" function="internal">
        <lane id=":1207224840_1_0" index="0" disallow="tram rail_urban rail rail_electric rail_fast ship" speed="17.990000000000002" length="14.22" shape="331.22,2276.68 327.55,2275.36 325.19,2273.18 324.15,2270.14 324.43,2266.25" />
    </edge>
    <edge id=":1207224840_2" function="internal">
        <lane id=":1207224840_2_0" index="0" disallow="tram rail_urban rail rail_electric rail_fast ship" speed="13.649999999999999" length="4.67" shape="331.22,2276.68 330.20,2275.66 329.97,2274.79 330.53,2274.09 331.87,2273.55" />
    </edge>
    <edge id=":1207224840_3" function="internal">
        <lane id=":1207224840_3_0" index="0" disallow="tram rail_urban rail rail_electric rail_fast ship" speed="16.490000000000002" length="9.03" shape="327.55,2266.92 327.38,2269.39 328.04,2271.32 329.54,2272.71 331.87,2273.55" />
    </edge>
    <edge id=":1207224840_4" function="internal">
        <lane id=":1207224840_4_0" index="0" disallow="tram rail_urban rail rail_electric rail_fast ship" speed="23.89" length="14.40" shape="327.55,2266.92 324.53,2281.01" />
    </edge>
    <edge id=":1207224840_5" function="internal">
        <lane id=":1207224840_5_0" index="0" disallow="tram rail_urban rail rail_electric rail_fast ship" speed="13.649999999999999" length="2.34" shape="327.55,2266.92 326.52,2267.93 325.65,2268.15" />
    </edge>
    <edge id=":1207224840_9" function="internal">
        <lane id=":1207224840_9_0" index="0" disallow="tram rail_urban rail rail_electric rail_fast ship" speed="13.649999999999999" length="2.34" shape="325.65,2268.15 324.96,2267.59 324.43,2266.25" />
    </edge>
    <edge id=":1207224840_6" function="internal">
        <lane id=":1207224840_6_0" index="0" disallow="tram rail_urban rail rail_electric rail_fast ship" speed="23.89" length="14.41" shape="321.40,2280.34 324.43,2266.25" />
    </edge>
    <edge id=":1207224840_7" function="internal">
        <lane id=":1207224840_7_0" index="0" disallow="tram rail_urban rail rail_electric rail_fast ship" speed="18.02" length="5.93" shape="321.40,2280.34 322.74,2276.70 324.14,2275.20" />
    </edge>
    <edge id=":1207224840_8" function="internal">
        <lane id=":1207224840_8_0" index="0" disallow="tram rail_urban rail rail_electric rail_fast ship" speed="13.649999999999999" length="2.34" shape="321.40,2280.34 322.44,2279.33 323.30,2279.11" />
    </edge>
    <edge id=":1207224840_10" function="internal">
        <lane id=":1207224840_10_0" index="0" disallow="tram rail_urban rail rail_electric rail_fast ship" speed="18.02" length="8.28" shape="324.14,2275.20 324.93,2274.35 327.98,2273.30 331.87,2273.55" />
    </edge>
    <edge id=":1207224840_11" function="internal">
        <lane id=":1207224840_11_0" index="0" disallow="tram rail_urban rail rail_electric rail_fast ship" speed="13.649999999999999" length="2.34" shape="323.30,2279.11 324.00,2279.67 324.53,2281.01" />
    </edge>
    <edge id=":1207224843_0" function="internal">
        <lane id=":1207224843_0_0" index="0" disallow="tram rail_urban rail rail_electric rail_fast ship" speed="23.89" length="11.35" shape="531.89,3550.19 530.88,3561.49" />
    </edge>
    <edge id=":1207224843_1" function="internal">
        <lane id=":1207224843_1_0" index="0" disallow="tram rail_urban rail rail_electric rail_fast ship" speed="17.46" length="4.04" shape="531.89,3550.19 531.16,3552.53 529.98,3553.60" />
    </edge>
    <edge id=":1207224843_2" function="internal">
        <lane id=":1207224843_2_0" index="0" disallow="tram rail_urban rail rail_electric rail_fast ship" speed="13.649999999999999" length="2.34" shape="531.89,3550.19 531.01,3551.33 530.18,3551.67" />
    </edge>
    <edge id=":1207224843_6" function="internal">
        <lane id=":1207224843_6_0" index="0" disallow="tram rail_urban rail rail_electric rail_fast ship" speed="17.46" length="7.77" shape="529.98,3553.60 529.36,3554.16 526.50,3555.07 522.58,3555.27" />
    </edge>
    <edge id=":1207224843_7" function="internal">
        <lane id=":1207224843_7_0" index="0" disallow="tram rail_urban rail rail_electric rail_fast ship" speed="13.649999999999999" length="2.34" shape="530.18,3551.67 529.41,3551.21 528.70,3549.95" />
    </edge>
    <edge id=":1207224843_3" function="internal">
        <lane id=":1207224843_3_0" index="0" disallow="tram rail_urban rail rail_electric rail_fast ship" speed="16.36" length="9.04" shape="527.69,3561.16 527.60,3558.66 526.71,3556.84 525.04,3555.71 522.58,3555.27" />
    </edge>
    <edge id=":1207224843_4" function="internal">
        <lane id=":1207224843_4_0" index="0" disallow="tram rail_urban rail rail_electric rail_fast ship" speed="23.89" length="11.25" shape="527.69,3561.16 528.70,3549.95" />
    </edge>
    <edge id=":1207224843_5" function="internal">
        <lane id=":1207224843_5_0" index="0" disallow="tram rail_urban rail rail_electric rail_fast ship" speed="13.649999999999999" length="2.34" shape="527.69,3561.16 528.61,3560.05 529.45,3559.73" />
    </edge>
    <edge id=":1207224843_8" function="internal">
        <lane id=":1207224843_8_0" index="0" disallow="tram rail_urban rail rail_electric rail_fast ship" speed="13.649999999999999" length="2.34" shape="529.45,3559.73 530.20,3560.21 530.88,3561.49" />
    </edge>
    <edge id=":1207224847_0" function="internal">
        <lane id=":1207224847_0_0" index="0" disallow="tram rail_urban rail rail_electric rail_fast ship" speed="16.45" length="9.03" shape="283.49,2492.60 281.02,2492.34 279.08,2492.95 277.67,2494.41 276.79,2496.74" />
    </edge>
    <edge id=":1207224847_1" function="internal">
        <lane id=":1207224847_1_0" index="0" disallow="tram rail_urban rail rail_electric rail_fast ship" speed="18.11" length="14.22" shape="283.49,2492.60 279.86,2491.13 277.52,2488.88 276.48,2485.84 276.74,2482.01" />
    </edge>
    <edge id=":1207224847_2" function="internal">
        <lane id=":1207224847_2_0" index="0" disallow="tram rail_urban rail rail_electric rail_fast ship" speed="13.649999999999999" length="4.67" shape="283.49,2492.60 282.52,2491.53 282.33,2490.66 282.91,2489.98 284.27,2489.49" />
    </edge>
    <edge id=":1207224847_3" function="internal">
        <lane id=":1207224847_3_0" index="0" disallow="tram rail_urban rail rail_electric rail_fast ship" speed="16.63" length="9.18" shape="279.87,2482.68 279.71,2485.14 280.39,2487.09 281.91,2488.55 284.27,2489.49" />
    </edge>
    <edge id=":1207224847_4" function="internal">
        <lane id=":1207224847_4_0" index="0" disallow="tram rail_urban rail rail_electric rail_fast ship" speed="23.89" length="14.39" shape="279.87,2482.68 276.79,2496.74" />
    </edge>
    <edge id=":1207224847_5" function="internal">
        <lane id=":1207224847_5_0" index="0" disallow="tram rail_urban rail rail_electric rail_fast ship" speed="13.649999999999999" length="2.34" shape="279.87,2482.68 278.83,2483.68 277.97,2483.91" />
    </edge>
    <edge id=":1207224847_9" function="internal">
        <lane id=":1207224847_9_0" index="0" disallow="tram rail_urban rail rail_electric rail_fast ship" speed="13.649999999999999" length="2.34" shape="277.97,2483.91 277.27,2483.35 276.74,2482.01" />
    </edge>
    <edge id=":1207224847_6" function="internal">
        <lane id=":1207224847_6_0" index="0" disallow="tram rail_urban rail rail_electric rail_fast ship" speed="23.89" length="14.37" shape="273.67,2496.04 276.74,2482.01" />
    </edge>
    <edge id=":1207224847_7" function="internal">
        <lane id=":1207224847_7_0" index="0" disallow="tram rail_urban rail rail_electric rail_fast ship" speed="17.96" length="5.89" shape="273.67,2496.04 275.06,2492.37 276.42,2490.95" />
    </edge>
    <edge id=":1207224847_8" function="internal">
        <lane id=":1207224847_8_0" index="0" disallow="tram rail_urban rail rail_electric rail_fast ship" speed="13.649999999999999" length="2.34" shape="273.67,2496.04 274.71,2495.04 275.58,2494.83" />
    </edge>
    <edge id=":1207224847_10" function="internal">
        <lane id=":1207224847_10_0" index="0" disallow="tram rail_urban rail rail_electric rail_fast ship" speed="17.96" length="8.40" shape="276.42,2490.95 277.29,2490.05 280.36,2489.09 284.27,2489.49" />
    </edge>
    <edge id=":1207224847_11" function="internal">
        <lane id=":1207224847_11_0" index="0" disallow="tram rail_urban rail rail_electric rail_fast ship" speed="13.649999999999999" length="2.34" shape="275.58,2494.83 276.27,2495.39 276.79,2496.74" />
    </edge>
    <edge id=":1207224848_0" function="internal">
        <lane id=":1207224848_0_0" index="0" disallow="tram rail_urban rail rail_electric rail_fast ship" speed="18.369999999999997" length="11.27" shape="343.25,2216.74 340.95,2217.55 339.07,2219.19 337.62,2221.66 336.60,2224.97" />
    </edge>
    <edge id=":1207224848_1" function="internal">
        <lane id=":1207224848_1_0" index="0" disallow="tram rail_urban rail rail_electric rail_fast ship" speed="23.89" length="14.90" shape="343.25,2216.74 328.54,2219.14" />
    </edge>
    <edge id=":1207224848_2" function="internal">
        <lane id=":1207224848_2_0" index="0" disallow="tram rail_urban rail rail_electric rail_fast ship" speed="13.649999999999999" length="2.34" shape="343.25,2216.74 341.94,2216.13 341.43,2215.40" />
    </edge>
    <edge id=":1207224848_9" function="internal">
        <lane id=":1207224848_9_0" index="0" disallow="tram rail_urban rail rail_electric rail_fast ship" speed="13.649999999999999" length="2.34" shape="341.43,2215.40 341.70,2214.55 342.76,2213.58" />
    </edge>
    <edge id=":1207224848_3" function="internal">
        <lane id=":1207224848_3_0" index="0" disallow="tram rail_urban rail rail_electric rail_fast ship" speed="23.89" length="14.95" shape="328.01,2215.99 342.76,2213.58" />
    </edge>
    <edge id=":1207224848_4" function="internal">
        <lane id=":1207224848_4_0" index="0" disallow="tram rail_urban rail rail_electric rail_fast ship" speed="17.5" length="6.34" shape="328.01,2215.99 332.65,2215.85 334.18,2216.60" />
    </edge>
    <edge id=":1207224848_5" function="internal">
        <lane id=":1207224848_5_0" index="0" disallow="tram rail_urban rail rail_electric rail_fast ship" speed="13.649999999999999" length="2.34" shape="328.01,2215.99 329.33,2216.57 329.85,2217.30" />
    </edge>
    <edge id=":1207224848_10" function="internal">
        <lane id=":1207224848_10_0" index="0" disallow="tram rail_urban rail rail_electric rail_fast ship" speed="17.5" length="9.56" shape="334.18,2216.60 335.62,2217.31 336.94,2220.35 336.60,2224.97" />
    </edge>
    <edge id=":1207224848_11" function="internal">
        <lane id=":1207224848_11_0" index="0" disallow="tram rail_urban rail rail_electric rail_fast ship" speed="13.649999999999999" length="2.34" shape="329.85,2217.30 329.59,2218.15 328.54,2219.14" />
    </edge>
    <edge id=":1207224848_6" function="internal">
        <lane id=":1207224848_6_0" index="0" disallow="tram rail_urban rail rail_electric rail_fast ship" speed="15.84" length="9.13" shape="333.48,2224.30 333.67,2221.64 332.91,2219.90 331.20,2219.06 328.54,2219.14" />
    </edge>
    <edge id=":1207224848_7" function="internal">
        <lane id=":1207224848_7_0" index="0" disallow="tram rail_urban rail rail_electric rail_fast ship" speed="19.630000000000003" length="15.13" shape="333.48,2224.30 334.83,2220.03 336.83,2216.81 339.48,2214.67 342.76,2213.58" />
    </edge>
    <edge id=":1207224848_8" function="internal">
        <lane id=":1207224848_8_0" index="0" disallow="tram rail_urban rail rail_electric rail_fast ship" speed="13.649999999999999" length="4.67" shape="333.48,2224.30 334.51,2223.29 335.38,2223.07 336.07,2223.63 336.60,2224.97" />
    </edge>
    <edge id=":1207224985_0" function="internal">
        <lane id=":1207224985_0_0" index="0" disallow="tram rail_urban rail rail_electric rail_fast ship" speed="16.48" length="9.03" shape="396.33,2445.56 393.87,2445.29 391.92,2445.87 390.48,2447.32 389.56,2449.62" />
    </edge>
    <edge id=":1207224985_1" function="internal">
        <lane id=":1207224985_1_0" index="0" disallow="tram rail_urban rail rail_electric rail_fast ship" speed="23.89" length="14.44" shape="396.33,2445.56 382.31,2442.13" />
    </edge>
    <edge id=":1207224985_2" function="internal">
        <lane id=":1207224985_2_0" index="0" disallow="tram rail_urban rail rail_electric rail_fast ship" speed="18.1" length="14.27" shape="396.33,2445.56 392.72,2444.06 390.43,2441.78 389.44,2438.70 389.77,2434.82" />
    </edge>
    <edge id=":1207224985_3" function="internal">
        <lane id=":1207224985_3_0" index="0" disallow="tram rail_urban rail rail_electric rail_fast ship" speed="13.649999999999999" length="4.67" shape="396.33,2445.56 395.37,2444.48 395.18,2443.61 395.77,2442.93 397.13,2442.46" />
    </edge>
    <edge id=":1207224985_4" function="internal">
        <lane id=":1207224985_4_0" index="0" disallow="tram rail_urban rail rail_electric rail_fast ship" speed="16.62" length="9.20" shape="392.89,2435.54 392.68,2438.04 393.32,2440.02 394.80,2441.49 397.13,2442.46" />
    </edge>
    <edge id=":1207224985_5" function="internal">
        <lane id=":1207224985_5_0" index="0" disallow="tram rail_urban rail rail_electric rail_fast ship" speed="23.89" length="14.47" shape="392.89,2435.54 389.56,2449.62" />
    </edge>
    <edge id=":1207224985_6" function="internal">
        <lane id=":1207224985_6_0" index="0" disallow="tram rail_urban rail rail_electric rail_fast ship" speed="18.009999999999998" length="5.99" shape="392.89,2435.54 391.49,2439.17 390.03,2440.68" />
    </edge>
    <edge id=":1207224985_7" function="internal">
        <lane id=":1207224985_7_0" index="0" disallow="tram rail_urban rail rail_electric rail_fast ship" speed="13.649999999999999" length="2.34" shape="392.89,2435.54 391.84,2436.53 390.97,2436.74" />
    </edge>
    <edge id=":1207224985_16" function="internal">
        <lane id=":1207224985_16_0" index="0" disallow="tram rail_urban rail rail_electric rail_fast ship" speed="18.009999999999998" length="8.24" shape="390.03,2440.68 389.26,2441.48 386.20,2442.46 382.31,2442.13" />
    </edge>
    <edge id=":1207224985_17" function="internal">
        <lane id=":1207224985_17_0" index="0" disallow="tram rail_urban rail rail_electric rail_fast ship" speed="13.649999999999999" length="2.34" shape="390.97,2436.74 390.28,2436.17 389.77,2434.82" />
    </edge>
    <edge id=":1207224985_8" function="internal">
        <lane id=":1207224985_8_0" index="0" disallow="tram rail_urban rail rail_electric rail_fast ship" speed="16.509999999999998" length="9.06" shape="383.03,2439.01 385.51,2439.23 387.46,2438.60 388.88,2437.13 389.77,2434.82" />
    </edge>
    <edge id=":1207224985_9" function="internal">
        <lane id=":1207224985_9_0" index="0" disallow="tram rail_urban rail rail_electric rail_fast ship" speed="23.89" length="14.52" shape="383.03,2439.01 397.13,2442.46" />
    </edge>
    <edge id=":1207224985_10" function="internal">
        <lane id=":1207224985_10_0" index="0" disallow="tram rail_urban rail rail_electric rail_fast ship" speed="17.98" length="14.24" shape="383.03,2439.01 386.67,2440.42 388.97,2442.66 389.94,2445.73 389.56,2449.62" />
    </edge>
    <edge id=":1207224985_11" function="internal">
        <lane id=":1207224985_11_0" index="0" disallow="tram rail_urban rail rail_electric rail_fast ship" speed="13.649999999999999" length="4.67" shape="383.03,2439.01 384.02,2440.06 384.23,2440.93 383.66,2441.62 382.31,2442.13" />
    </edge>
    <edge id=":1207224985_12" function="internal">
        <lane id=":1207224985_12_0" index="0" disallow="tram rail_urban rail rail_electric rail_fast ship" speed="16.490000000000002" length="9.04" shape="386.45,2448.86 386.69,2446.39 386.08,2444.45 384.62,2443.03 382.31,2442.13" />
    </edge>
    <edge id=":1207224985_13" function="internal">
        <lane id=":1207224985_13_0" index="0" disallow="tram rail_urban rail rail_electric rail_fast ship" speed="23.89" length="14.43" shape="386.45,2448.86 389.77,2434.82" />
    </edge>
    <edge id=":1207224985_14" function="internal">
        <lane id=":1207224985_14_0" index="0" disallow="tram rail_urban rail rail_electric rail_fast ship" speed="17.98" length="5.87" shape="386.45,2448.86 387.90,2445.23 389.28,2443.84" />
    </edge>
    <edge id=":1207224985_15" function="internal">
        <lane id=":1207224985_15_0" index="0" disallow="tram rail_urban rail rail_electric rail_fast ship" speed="13.649999999999999" length="2.34" shape="386.45,2448.86 387.51,2447.89 388.38,2447.69" />
    </edge>
    <edge id=":1207224985_18" function="internal">
        <lane id=":1207224985_18_0" index="0" disallow="tram rail_urban rail rail_electric rail_fast ship" speed="17.98" length="8.38" shape="389.28,2443.84 390.17,2442.95 393.24,2442.03 397.13,2442.46" />
    </edge>
    <edge id=":1207224985_19" function="internal">
        <lane id=":1207224985_19_0" index="0" disallow="tram rail_urban rail rail_electric rail_fast ship" speed="13.649999999999999" length="2.34" shape="388.38,2447.69 389.07,2448.26 389.56,2449.62" />
    </edge>
    <edge id=":1207225057_0" function="internal">
        <lane id=":1207225057_0_0" index="0" disallow="tram rail_urban rail rail_electric rail_fast ship" speed="16.509999999999998" length="8.97" shape="308.01,2384.73 305.57,2384.49 303.63,2385.09 302.19,2386.52 301.26,2388.79" />
    </edge>
    <edge id=":1207225057_1" function="internal">
        <lane id=":1207225057_1_0" index="0" disallow="tram rail_urban rail rail_electric rail_fast ship" speed="18.05" length="14.06" shape="308.01,2384.73 304.43,2383.31 302.13,2381.08 301.12,2378.06 301.37,2374.24" />
    </edge>
    <edge id=":1207225057_2" function="internal">
        <lane id=":1207225057_2_0" index="0" disallow="tram rail_urban rail rail_electric rail_fast ship" speed="13.649999999999999" length="4.67" shape="308.01,2384.73 307.03,2383.67 306.84,2382.80 307.41,2382.12 308.77,2381.63" />
    </edge>
    <edge id=":1207225057_3" function="internal">
        <lane id=":1207225057_3_0" index="0" disallow="tram rail_urban rail rail_electric rail_fast ship" speed="16.57" length="9.01" shape="304.50,2374.91 304.34,2377.35 305.00,2379.29 306.47,2380.71 308.77,2381.63" />
    </edge>
    <edge id=":1207225057_4" function="internal">
        <lane id=":1207225057_4_0" index="0" disallow="tram rail_urban rail rail_electric rail_fast ship" speed="23.89" length="14.26" shape="304.50,2374.91 301.26,2388.79" />
    </edge>
    <edge id=":1207225057_5" function="internal">
        <lane id=":1207225057_5_0" index="0" disallow="tram rail_urban rail rail_electric rail_fast ship" speed="13.649999999999999" length="2.34" shape="304.50,2374.91 303.47,2375.92 302.61,2376.14" />
    </edge>
    <edge id=":1207225057_9" function="internal">
        <lane id=":1207225057_9_0" index="0" disallow="tram rail_urban rail rail_electric rail_fast ship" speed="13.649999999999999" length="2.34" shape="302.61,2376.14 301.91,2375.58 301.37,2374.24" />
    </edge>
    <edge id=":1207225057_6" function="internal">
        <lane id=":1207225057_6_0" index="0" disallow="tram rail_urban rail rail_electric rail_fast ship" speed="23.89" length="14.13" shape="298.15,2388.00 301.37,2374.24" />
    </edge>
    <edge id=":1207225057_7" function="internal">
        <lane id=":1207225057_7_0" index="0" disallow="tram rail_urban rail rail_electric rail_fast ship" speed="18.0" length="5.71" shape="298.15,2388.00 299.62,2384.44 300.94,2383.13" />
    </edge>
    <edge id=":1207225057_8" function="internal">
        <lane id=":1207225057_8_0" index="0" disallow="tram rail_urban rail rail_electric rail_fast ship" speed="13.649999999999999" length="2.34" shape="298.15,2388.00 299.23,2387.04 300.10,2386.85" />
    </edge>
    <edge id=":1207225057_10" function="internal">
        <lane id=":1207225057_10_0" index="0" disallow="tram rail_urban rail rail_electric rail_fast ship" speed="18.0" length="8.38" shape="300.94,2383.13 301.88,2382.19 304.93,2381.25 308.77,2381.63" />
    </edge>
    <edge id=":1207225057_11" function="internal">
        <lane id=":1207225057_11_0" index="0" disallow="tram rail_urban rail rail_electric rail_fast ship" speed="13.649999999999999" length="2.34" shape="300.10,2386.85 300.78,2387.43 301.26,2388.79" />
    </edge>
    <edge id=":1207225114_0" function="internal">
        <lane id=":1207225114_0_0" index="0" disallow="tram rail_urban rail rail_electric rail_fast ship" speed="16.47" length="9.05" shape="298.50,2422.68 296.02,2422.47 294.08,2423.10 292.69,2424.58 291.83,2426.91" />
    </edge>
    <edge id=":1207225114_1" function="internal">
        <lane id=":1207225114_1_0" index="0" disallow="tram rail_urban rail rail_electric rail_fast ship" speed="17.96" length="14.28" shape="298.50,2422.68 294.84,2421.26 292.55,2419.02 291.61,2415.94 292.03,2412.04" />
    </edge>
    <edge id=":1207225114_2" function="internal">
        <lane id=":1207225114_2_0" index="0" disallow="tram rail_urban rail rail_electric rail_fast ship" speed="13.649999999999999" length="4.67" shape="298.50,2422.68 297.51,2421.63 297.30,2420.76 297.88,2420.07 299.23,2419.57" />
    </edge>
    <edge id=":1207225114_3" function="internal">
        <lane id=":1207225114_3_0" index="0" disallow="tram rail_urban rail rail_electric rail_fast ship" speed="16.46" length="9.03" shape="295.13,2412.83 294.86,2415.30 295.46,2417.24 296.91,2418.67 299.23,2419.57" />
    </edge>
    <edge id=":1207225114_4" function="internal">
        <lane id=":1207225114_4_0" index="0" disallow="tram rail_urban rail rail_electric rail_fast ship" speed="23.89" length="14.46" shape="295.13,2412.83 291.83,2426.91" />
    </edge>
    <edge id=":1207225114_5" function="internal">
        <lane id=":1207225114_5_0" index="0" disallow="tram rail_urban rail rail_electric rail_fast ship" speed="13.649999999999999" length="2.34" shape="295.13,2412.83 294.06,2413.80 293.18,2413.99" />
    </edge>
    <edge id=":1207225114_9" function="internal">
        <lane id=":1207225114_9_0" index="0" disallow="tram rail_urban rail rail_electric rail_fast ship" speed="13.649999999999999" length="2.34" shape="293.18,2413.99 292.51,2413.40 292.03,2412.04" />
    </edge>
    <edge id=":1207225114_6" function="internal">
        <lane id=":1207225114_6_0" index="0" disallow="tram rail_urban rail rail_electric rail_fast ship" speed="23.89" length="14.58" shape="288.70,2426.24 292.03,2412.04" />
    </edge>
    <edge id=":1207225114_7" function="internal">
        <lane id=":1207225114_7_0" index="0" disallow="tram rail_urban rail rail_electric rail_fast ship" speed="17.97" length="6.14" shape="288.70,2426.24 290.05,2422.56 291.58,2420.95" />
    </edge>
    <edge id=":1207225114_8" function="internal">
        <lane id=":1207225114_8_0" index="0" disallow="tram rail_urban rail rail_electric rail_fast ship" speed="13.649999999999999" length="2.34" shape="288.70,2426.24 289.73,2425.23 290.60,2425.01" />
    </edge>
    <edge id=":1207225114_10" function="internal">
        <lane id=":1207225114_10_0" index="0" disallow="tram rail_urban rail rail_electric rail_fast ship" speed="17.97" length="8.13" shape="291.58,2420.95 292.26,2420.23 295.32,2419.23 299.23,2419.57" />
    </edge>
    <edge id=":1207225114_11" function="internal">
        <lane id=":1207225114_11_0" index="0" disallow="tram rail_urban rail rail_electric rail_fast ship" speed="13.649999999999999" length="2.34" shape="290.60,2425.01 291.29,2425.57 291.83,2426.91" />
    </edge>
    <edge id=":1207473015_0" function="internal">
        <lane id=":1207473015_0_0" index="0" disallow="tram rail_urban rail rail_electric rail_fast ship" speed="16.34" length="9.04" shape="420.39,3056.87 417.91,3057.20 416.19,3058.25 415.25,3060.03 415.07,3062.53" />
    </edge>
    <edge id=":1207473015_1" function="internal">
        <lane id=":1207473015_1_0" index="0" disallow="tram rail_urban rail rail_electric rail_fast ship" speed="23.89" length="11.55" shape="420.39,3056.87 408.85,3056.98" />
    </edge>
    <edge id=":1207473015_2" function="internal">