<?xml version="1.0" encoding="UTF-8"?>

<!-- generated on 2021-05-05 22:44:30 by Eclipse SUMO duarouter Version 1.9.1
<configuration xmlns:xsi="http://www.w3.org/2001/XMLSchema-instance" xsi:noNamespaceSchemaLocation="http://sumo.dlr.de/xsd/duarouterConfiguration.xsd">

    <input>
        <net-file value="osm.net.xml"/>
        <route-files value="osm.passenger.trips.xml"/>
    </input>

    <output>
        <output-file value="osm.passenger.trips.xml.tmp"/>
        <write-trips value="true"/>
    </output>

    <time>
        <begin value="0"/>
        <end value="36000"/>
    </time>

    <report>
        <no-warnings value="true"/>
        <ignore-errors value="true"/>
        <no-step-log value="true"/>
    </report>

</configuration>
-->

<routes xmlns:xsi="http://www.w3.org/2001/XMLSchema-instance" xsi:noNamespaceSchemaLocation="http://sumo.dlr.de/xsd/routes_file.xsd">
    <vType id="veh_passenger" vClass="passenger"/>
    <trip id="veh0" type="veh_passenger" depart="0.00" departLane="best" from="158377998#4" to="-107176909"/>
    <trip id="veh1" type="veh_passenger" depart="1.06" departLane="best" departSpeed="max" from="-354414389#1" to="-283422196#1"/>
    <trip id="veh3" type="veh_passenger" depart="3.19" departLane="best" from="54570758#5" to="-121252930#0"/>
    <trip id="veh4" type="veh_passenger" depart="4.26" departLane="best" from="104682748" to="-109816271#0"/>
    <trip id="veh6" type="veh_passenger" depart="6.38" departLane="best" from="-107176910#0" to="-235161321"/>
    <trip id="veh7" type="veh_passenger" depart="7.45" departLane="best" from="158377998#7" to="121252931#1"/>
    <trip id="veh9" type="veh_passenger" depart="9.58" departLane="best" departSpeed="max" from="355367889" to="-104656477#4"/>
    <trip id="veh10" type="veh_passenger" depart="10.64" departLane="best" departSpeed="max" from="355367889" to="320358739"/>
    <trip id="veh11" type="veh_passenger" depart="11.71" departLane="best" from="-54570758#4" to="-168729296#1"/>
    <trip id="veh12" type="veh_passenger" depart="12.77" departLane="best" from="607937698" to="-59837330#2"/>
    <trip id="veh13" type="veh_passenger" depart="13.83" departLane="best" from="54568692#0" to="158377998#6"/>
    <trip id="veh14" type="veh_passenger" depart="14.90" departLane="best" departSpeed="max" from="355367889" to="353879507"/>
    <trip id="veh18" type="veh_passenger" depart="19.15" departLane="best" from="54570756#2" to="144460524#0"/>
    <trip id="veh19" type="veh_passenger" depart="20.22" departLane="best" from="234801707" to="-109898722#6"/>
    <trip id="veh21" type="veh_passenger" depart="22.35" departLane="best" departSpeed="max" from="-121252917" to="-320357214"/>
    <trip id="veh22" type="veh_passenger" depart="23.41" departLane="best" departSpeed="max" from="-121252924" to="-358984585"/>
    <trip id="veh23" type="veh_passenger" depart="24.48" departLane="best" from="158377998#3" to="104656477#3"/>
    <trip id="veh32" type="veh_passenger" depart="34.05" departLane="best" departSpeed="max" from="-358984588" to="-355367889"/>
    <trip id="veh34" type="veh_passenger" depart="36.18" departLane="best" from="54570757#6" to="-54570758#6"/>
    <trip id="veh36" type="veh_passenger" depart="38.31" departLane="best" from="54570762#0" to="109898724"/>
    <trip id="veh37" type="veh_passenger" depart="39.37" departLane="best" from="-353879510#3" to="-353879496#1"/>
    <trip id="veh38" type="veh_passenger" depart="40.44" departLane="best" from="121252933#1" to="54613278"/>
    <trip id="veh40" type="veh_passenger" depart="42.57" departLane="best" from="909437171" to="121252922#0"/>
    <trip id="veh41" type="veh_passenger" depart="43.63" departLane="best" from="-121252922#3" to="-109898722#6"/>
    <trip id="veh43" type="veh_passenger" depart="45.76" departLane="best" from="353879510#0" to="105463039#18"/>
    <trip id="veh44" type="veh_passenger" depart="46.82" departLane="best" departSpeed="max" from="-121252910" to="104682747#2"/>
    <trip id="veh45" type="veh_passenger" depart="47.89" departLane="best" from="908604578" to="121252928#4"/>
    <trip id="veh47" type="veh_passenger" depart="50.01" departLane="best" from="-104657720#3" to="353879489"/>
    <trip id="veh48" type="veh_passenger" depart="51.08" departLane="best" departSpeed="max" from="-354414388" to="168740955#1"/>
    <trip id="veh49" type="veh_passenger" depart="52.14" departLane="best" departSpeed="max" from="-121252929" to="107176910#1"/>
    <trip id="veh50" type="veh_passenger" depart="53.21" departLane="best" from="105463039#0" to="659390934"/>
    <trip id="veh51" type="veh_passenger" depart="54.27" departLane="best" from="54570757#6" to="-354705279"/>
    <trip id="veh52" type="veh_passenger" depart="55.34" departLane="best" from="109898722#0" to="-168735572#1"/>
    <trip id="veh53" type="veh_passenger" depart="56.40" departLane="best" from="54570762#0" to="54570760#7"/>
    <trip id="veh54" type="veh_passenger" depart="57.46" departLane="best" departSpeed="max" from="-355336301#1" to="168739668#0"/>
    <trip id="veh56" type="veh_passenger" depart="59.59" departLane="best" from="353879486#0" to="121252930#0"/>
    <trip id="veh57" type="veh_passenger" depart="60.66" departLane="best" from="353879502#0" to="121252928#6"/>
    <trip id="veh58" type="veh_passenger" depart="61.72" departLane="best" from="-104656477#0" to="-54613270#2"/>
    <trip id="veh59" type="veh_passenger" depart="62.78" departLane="best" from="-104682747#4" to="607937697"/>
    <trip id="veh60" type="veh_passenger" depart="63.85" departLane="best" from="54570757#8" to="54570756#16"/>
    <trip id="veh63" type="veh_passenger" depart="67.04" departLane="best" departSpeed="max" from="-121252912#2" to="355336294"/>
    <trip id="veh64" type="veh_passenger" depart="68.10" departLane="best" from="353879488" to="-144460526#0"/>
    <trip id="veh65" type="veh_passenger" depart="69.17" departLane="best" departSpeed="max" from="106116297" to="121252932#1"/>
    <trip id="veh66" type="veh_passenger" depart="70.23" departLane="best" from="-353879510#4" to="54570760#8"/>
    <trip id="veh68" type="veh_passenger" depart="72.36" departLane="best" from="121252919#0" to="353879507"/>
    <trip id="veh69" type="veh_passenger" depart="73.43" departLane="best" from="-175900201#0" to="-54570758#4"/>
    <trip id="veh70" type="veh_passenger" depart="74.49" departLane="best" from="908604578" to="168740957"/>
    <trip id="veh71" type="veh_passenger" depart="75.55" departLane="best" from="105463034" to="121252924"/>
    <trip id="veh72" type="veh_passenger" depart="76.62" departLane="best" from="-54570758#3" to="158377998#0"/>
    <trip id="veh73" type="veh_passenger" depart="77.68" departLane="best" departSpeed="max" from="-121252912#2" to="168735566#0"/>
    <trip id="veh75" type="veh_passenger" depart="79.81" departLane="best" from="54570756#14" to="-121252921#0"/>
    <trip id="veh76" type="veh_passenger" depart="80.87" departLane="best" from="-283422196#2" to="235161049#2"/>
    <trip id="veh79" type="veh_passenger" depart="84.07" departLane="best" departSpeed="max" from="106116297" to="358984588"/>
    <trip id="veh80" type="veh_passenger" depart="85.13" departLane="best" departSpeed="max" from="355367889" to="-234801707"/>
    <trip id="veh81" type="veh_passenger" depart="86.20" departLane="best" from="105463030" to="121252907"/>
    <trip id="veh83" type="veh_passenger" depart="88.32" departLane="best" from="659800333#2" to="-121252932#3"/>
    <trip id="veh84" type="veh_passenger" depart="89.39" departLane="best" from="104656477#0" to="-59837331#3"/>
    <trip id="veh85" type="veh_passenger" depart="90.45" departLane="best" from="54570756#2" to="-353879496#1"/>
    <trip id="veh86" type="veh_passenger" depart="91.52" departLane="best" from="-168739668#3" to="109898721"/>
    <trip id="veh87" type="veh_passenger" depart="92.58" departLane="best" from="104682748" to="-358984585"/>
    <trip id="veh88" type="veh_passenger" depart="93.64" departLane="best" from="-353879482#2" to="607937697"/>
    <trip id="veh89" type="veh_passenger" depart="94.71" departLane="best" from="105463036" to="54570759#6"/>
    <trip id="veh90" type="veh_passenger" depart="95.77" departLane="best" from="909437171" to="54570756#4"/>
    <trip id="veh91" type="veh_passenger" depart="96.84" departLane="best" from="659390935" to="607937697"/>
    <trip id="veh93" type="veh_passenger" depart="98.96" departLane="best" from="100722759" to="-121252908#1"/>
    <trip id="veh95" type="veh_passenger" depart="101.09" departLane="best" from="-353879510#4" to="358984586"/>
    <trip id="veh96" type="veh_passenger" depart="102.16" departLane="best" from="607937698" to="909437170"/>
    <trip id="veh97" type="veh_passenger" depart="103.22" departLane="best" from="121252928#0" to="353879488"/>
    <trip id="veh98" type="veh_passenger" depart="104.29" departLane="best" from="-144460526#4" to="-54570757#5"/>
    <trip id="veh99" type="veh_passenger" depart="105.35" departLane="best" from="659390934" to="144460526#0"/>
    <trip id="veh100" type="veh_passenger" depart="106.41" departLane="best" from="121252921#0" to="354414389#0"/>
    <trip id="veh101" type="veh_passenger" depart="107.48" departLane="best" from="109898722#1" to="54570758#3"/>
    <trip id="veh102" type="veh_passenger" depart="108.54" departLane="best" from="-150500617" to="659390939#2"/>
    <trip id="veh103" type="veh_passenger" depart="109.61" departLane="best" departSpeed="max" from="-121252917" to="-175900201#1"/>
    <trip id="veh104" type="veh_passenger" depart="110.67" departLane="best" departSpeed="max" from="135931622" to="236869541"/>
    <trip id="veh106" type="veh_passenger" depart="112.80" departLane="best" from="54570758#4" to="-353879496#1"/>
    <trip id="veh108" type="veh_passenger" depart="114.93" departLane="best" from="104682747#3" to="150500617"/>
    <trip id="veh109" type="veh_passenger" depart="115.99" departLane="best" departSpeed="max" from="121252908#0" to="607937697"/>
    <trip id="veh110" type="veh_passenger" depart="117.05" departLane="best" from="-175900204#1" to="353879488"/>
    <trip id="veh111" type="veh_passenger" depart="118.12" departLane="best" from="-320358739" to="105463032#2"/>
    <trip id="veh112" type="veh_passenger" depart="119.18" departLane="best" departSpeed="max" from="168729296#0" to="-54570757#8"/>
    <trip id="veh113" type="veh_passenger" depart="120.25" departLane="best" departSpeed="max" from="-358984588" to="354414389#0"/>
    <trip id="veh114" type="veh_passenger" depart="121.31" departLane="best" departSpeed="max" from="-121252912#2" to="109898724"/>
    <trip id="veh115" type="veh_passenger" depart="122.38" departLane="best" from="909437171" to="909437170"/>
    <trip id="veh117" type="veh_passenger" depart="124.50" departLane="best" from="-353879510#4" to="607937697"/>
    <trip id="veh118" type="veh_passenger" depart="125.57" departLane="best" departSpeed="max" from="54570758#0" to="54570762#1"/>
    <trip id="veh120" type="veh_passenger" depart="127.70" departLane="best" from="43979804#0" to="320358931"/>
    <trip id="veh121" type="veh_passenger" depart="128.76" departLane="best" from="144460524#0" to="908604578"/>
    <trip id="veh123" type="veh_passenger" depart="130.89" departLane="best" departSpeed="max" from="358984585" to="-54570757#7"/>
    <trip id="veh125" type="veh_passenger" depart="133.02" departLane="best" from="-135997658#0" to="-135997658#0"/>
    <trip id="veh126" type="veh_passenger" depart="134.08" departLane="best" departSpeed="max" from="-354414388" to="158377998#7"/>
    <trip id="veh128" type="veh_passenger" depart="136.21" departLane="best" from="158377998#2" to="-354705279"/>
    <trip id="veh129" type="veh_passenger" depart="137.27" departLane="best" from="54568688#2" to="-121252931#2"/>
    <trip id="veh130" type="veh_passenger" depart="138.34" departLane="best" from="105463030" to="-358984585"/>
    <trip id="veh131" type="veh_passenger" depart="139.40" departLane="best" from="158377998#3" to="-354704864"/>
    <trip id="veh132" type="veh_passenger" depart="140.47" departLane="best" from="105463032#0" to="-104656490"/>
    <trip id="veh133" type="veh_passenger" depart="141.53" departLane="best" departSpeed="max" from="-121252917" to="54570762#2"/>
    <trip id="veh134" type="veh_passenger" depart="142.59" departLane="best" from="54570760#4" to="121252931#2"/>
    <trip id="veh135" type="veh_passenger" depart="143.66" departLane="best" from="43979804#0" to="144460526#2"/>
    <trip id="veh138" type="veh_passenger" depart="146.85" departLane="best" from="353879510#2" to="54570759#1"/>
    <trip id="veh140" type="veh_passenger" depart="148.98" departLane="best" from="-353879482#2" to="-121252933#0"/>
    <trip id="veh141" type="veh_passenger" depart="150.04" departLane="best" from="353879502#1" to="54570762#2"/>
    <trip id="veh143" type="veh_passenger" depart="152.17" departLane="best" from="-144460526#1" to="607937697"/>
    <trip id="veh145" type="veh_passenger" depart="154.30" departLane="best" departSpeed="max" from="355367889" to="54570762#1"/>
    <trip id="veh146" type="veh_passenger" depart="155.36" departLane="best" from="-54570757#6" to="607937697"/>
    <trip id="veh147" type="veh_passenger" depart="156.43" departLane="best" from="355336301#0" to="54570760#0"/>
    <trip id="veh148" type="veh_passenger" depart="157.49" departLane="best" departSpeed="max" from="355367889" to="-355336301#0"/>
    <trip id="veh149" type="veh_passenger" depart="158.56" departLane="best" from="353879507" to="-121252933#2"/>
    <trip id="veh150" type="veh_passenger" depart="159.62" departLane="best" from="54570757#0" to="54570759#0"/>
    <trip id="veh152" type="veh_passenger" depart="161.75" departLane="best" from="105463464#0" to="-54570758#1"/>
    <trip id="veh153" type="veh_passenger" depart="162.81" departLane="best" from="353879510#2" to="-320357214"/>
    <trip id="veh154" type="veh_passenger" depart="163.88" departLane="best" from="-107176906#7" to="-234802941#3"/>
    <trip id="veh155" type="veh_passenger" depart="164.94" departLane="best" from="-54570755" to="54570760#1"/>
    <trip id="veh156" type="veh_passenger" depart="166.01" departLane="best" from="659390932" to="-358984585"/>
    <trip id="veh157" type="veh_passenger" depart="167.07" departLane="best" from="158377998#5" to="105463032#5"/>
    <trip id="veh158" type="veh_passenger" depart="168.13" departLane="best" from="659800333#0" to="121252929"/>
    <trip id="veh162" type="veh_passenger" depart="172.39" departLane="best" from="-121252928#6" to="107176910#1"/>
    <trip id="veh166" type="veh_passenger" depart="176.65" departLane="best" from="-353879502#0" to="353879482#2"/>
    <trip id="veh167" type="veh_passenger" depart="177.71" departLane="best" from="-104656477#1" to="607937697"/>
    <trip id="veh168" type="veh_passenger" depart="178.77" departLane="best" from="121252918#0" to="353879489"/>
    <trip id="veh170" type="veh_passenger" depart="180.90" departLane="best" from="-59837330#2" to="-121252921#0"/>
    <trip id="veh172" type="veh_passenger" depart="183.03" departLane="best" departSpeed="max" from="-358984588" to="54570757#7"/>
    <trip id="veh173" type="veh_passenger" depart="184.10" departLane="best" departSpeed="max" from="235161321" to="-54570757#8"/>
    <trip id="veh175" type="veh_passenger" depart="186.22" departLane="best" from="104656477#0" to="-54570757#5"/>
    <trip id="veh178" type="veh_passenger" depart="189.42" departLane="best" departSpeed="max" from="-355336301#1" to="121252931#4"/>
    <trip id="veh179" type="veh_passenger" depart="190.48" departLane="best" from="-104656477#0" to="-43967726#4"/>
    <trip id="veh182" type="veh_passenger" depart="193.67" departLane="best" departSpeed="max" from="106116297" to="54613283"/>
    <trip id="veh183" type="veh_passenger" depart="194.74" departLane="best" from="353879510#2" to="-168733117"/>
    <trip id="veh184" type="veh_passenger" depart="195.80" departLane="best" from="158377998#2" to="-59837330#1"/>
    <trip id="veh185" type="veh_passenger" depart="196.87" departLane="best" departSpeed="max" from="358984585" to="354414389#0"/>
    <trip id="veh186" type="veh_passenger" depart="197.93" departLane="best" departSpeed="max" from="168729296#0" to="-283422196#2"/>
    <trip id="veh187" type="veh_passenger" depart="198.99" departLane="best" departSpeed="max" from="-320358931" to="121252910"/>
    <trip id="veh188" type="veh_passenger" depart="200.06" departLane="best" from="54568692#2" to="-121252922#1"/>
    <trip id="veh189" type="veh_passenger" depart="201.12" departLane="best" from="104682747#0" to="168729107"/>
    <trip id="veh190" type="veh_passenger" depart="202.19" departLane="best" departSpeed="max" from="-168740957" to="290044165"/>
    <trip id="veh191" type="veh_passenger" depart="203.25" departLane="best" from="109898710#2" to="-353879496#1"/>
    <trip id="veh193" type="veh_passenger" depart="205.38" departLane="best" departSpeed="max" from="320357214" to="355336301#1"/>
    <trip id="veh194" type="veh_passenger" depart="206.44" departLane="best" from="-121252928#4" to="105463464#0"/>
    <trip id="veh196" type="veh_passenger" depart="208.57" departLane="best" from="121252907" to="-109898722#8"/>
    <trip id="veh197" type="veh_passenger" depart="209.63" departLane="best" from="-353879482#2" to="54570757#7"/>
    <trip id="veh198" type="veh_passenger" depart="210.70" departLane="best" from="105463039#16" to="43967950#1"/>
    <trip id="veh199" type="veh_passenger" depart="211.76" departLane="best" departSpeed="max" from="168729296#0" to="908604578"/>
    <trip id="veh202" type="veh_passenger" depart="214.96" departLane="best" departSpeed="max" from="235161321" to="121252920"/>
    <trip id="veh203" type="veh_passenger" depart="216.02" departLane="best" from="43967950#2" to="121252931#4"/>
    <trip id="veh204" type="veh_passenger" depart="217.08" departLane="best" from="54570759#1" to="354414388"/>
    <trip id="veh205" type="veh_passenger" depart="218.15" departLane="best" departSpeed="max" from="106116297" to="-353879510#3"/>
    <trip id="veh206" type="veh_passenger" depart="219.21" departLane="best" from="353879488" to="121252924"/>
    <trip id="veh207" type="veh_passenger" depart="220.28" departLane="best" from="150500617" to="-355367889"/>
    <trip id="veh208" type="veh_passenger" depart="221.34" departLane="best" departSpeed="max" from="-121252917" to="-43967726#3"/>
    <trip id="veh209" type="veh_passenger" depart="222.40" departLane="best" departSpeed="max" from="-354414388" to="-54570759#7"/>
    <trip id="veh210" type="veh_passenger" depart="223.47" departLane="best" from="121252919#0" to="-144461454#1"/>
    <trip id="veh212" type="veh_passenger" depart="225.60" departLane="best" from="234802941#0" to="-121252908#1"/>
    <trip id="veh213" type="veh_passenger" depart="226.66" departLane="best" from="104656477#3" to="121252931#0"/>
    <trip id="veh215" type="veh_passenger" depart="228.79" departLane="best" from="121252933#1" to="283422196#2"/>
    <trip id="veh216" type="veh_passenger" depart="229.85" departLane="best" from="54570756#10" to="355336294"/>
    <trip id="veh218" type="veh_passenger" depart="231.98" departLane="best" from="-54613270#2" to="354414389#0"/>
    <trip id="veh219" type="veh_passenger" depart="233.05" departLane="best" from="54570755" to="659390934"/>
    <trip id="veh220" type="veh_passenger" depart="234.11" departLane="best" from="104682747#3" to="354414389#0"/>
    <trip id="veh221" type="veh_passenger" depart="235.17" departLane="best" from="121252922#2" to="158377998#6"/>
    <trip id="veh223" type="veh_passenger" depart="237.30" departLane="best" from="105463032#5" to="-109814886"/>
    <trip id="veh225" type="veh_passenger" depart="239.43" departLane="best" from="104656477#1" to="-168733117"/>
    <trip id="veh226" type="veh_passenger" depart="240.49" departLane="best" departSpeed="max" from="106116297" to="-144460526#0"/>
    <trip id="veh227" type="veh_passenger" depart="241.56" departLane="best" departSpeed="max" from="144461454#0" to="-107176910#1"/>
    <trip id="veh229" type="veh_passenger" depart="243.69" departLane="best" from="-107176910#1" to="168740957"/>
    <trip id="veh231" type="veh_passenger" depart="245.82" departLane="best" from="-109898722#8" to="104682747#0"/>
    <trip id="veh232" type="veh_passenger" depart="246.88" departLane="best" from="353879483#1" to="104682747#0"/>
    <trip id="veh233" type="veh_passenger" depart="247.94" departLane="best" departSpeed="max" from="320357214" to="54570756#16"/>
    <trip id="veh234" type="veh_passenger" depart="249.01" departLane="best" from="-353879483#2" to="-121252928#3"/>
    <trip id="veh235" type="veh_passenger" depart="250.07" departLane="best" from="-104682747#4" to="121252930#0"/>
    <trip id="veh239" type="veh_passenger" depart="254.33" departLane="best" from="560954816" to="-235161321"/>
    <trip id="veh243" type="veh_passenger" depart="258.59" departLane="best" from="175900204#0" to="355336301#0"/>
    <trip id="veh246" type="veh_passenger" depart="261.78" departLane="best" from="358984586" to="659390943#0"/>
    <trip id="veh247" type="veh_passenger" depart="262.84" departLane="best" from="-121252928#6" to="-107176910#0"/>
    <trip id="veh249" type="veh_passenger" depart="264.97" departLane="best" from="607937698" to="105463032#3"/>
    <trip id="veh250" type="veh_passenger" depart="266.03" departLane="best" departSpeed="max" from="235161321" to="-121252922#3"/>
    <trip id="veh252" type="veh_passenger" depart="268.16" departLane="best" from="-121252925" to="355336301#1"/>
    <trip id="veh253" type="veh_passenger" depart="269.23" departLane="best" from="54568692#2" to="158377998#5"/>
    <trip id="veh254" type="veh_passenger" depart="270.29" departLane="best" from="-121252931#1" to="908604577"/>
    <trip id="veh256" type="veh_passenger" depart="272.42" departLane="best" from="105463032#0" to="104656490"/>
    <trip id="veh258" type="veh_passenger" depart="274.55" departLane="best" from="-121252928#3" to="659390939#2"/>
    <trip id="veh259" type="veh_passenger" depart="275.61" departLane="best" from="158377998#3" to="54570756#13"/>
    <trip id="veh260" type="veh_passenger" depart="276.68" departLane="best" from="234802941#1" to="107176910#1"/>
    <trip id="veh262" type="veh_passenger" depart="278.80" departLane="best" departSpeed="max" from="-354414388" to="43979804#3"/>
    <trip id="veh263" type="veh_passenger" depart="279.87" departLane="best" from="121252918#0" to="121252912#0"/>
    <trip id="veh264" type="veh_passenger" depart="280.93" departLane="best" from="105463032#5" to="353879507"/>
    <trip id="veh265" type="veh_passenger" depart="282.00" departLane="best" departSpeed="max" from="-354414388" to="54570758#2"/>
    <trip id="veh266" type="veh_passenger" depart="283.06" departLane="best" from="43967950#2" to="-121252930#0"/>
    <trip id="veh267" type="veh_passenger" depart="284.12" departLane="best" departSpeed="max" from="54570758#0" to="-353879496#1"/>
    <trip id="veh270" type="veh_passenger" depart="287.32" departLane="best" from="54568692#2" to="-175900195"/>
    <trip id="veh271" type="veh_passenger" depart="288.38" departLane="best" from="-234802941#4" to="43967726#6"/>
    <trip id="veh272" type="veh_passenger" depart="289.44" departLane="best" from="-54570758#4" to="54570762#1"/>
    <trip id="veh273" type="veh_passenger" depart="290.51" departLane="best" from="175900206" to="-358984585"/>
    <trip id="veh275" type="veh_passenger" depart="292.64" departLane="best" from="-121252921#0" to="353879489"/>
    <trip id="veh276" type="veh_passenger" depart="293.70" departLane="best" from="109816271#0" to="355336285"/>
    <trip id="veh277" type="veh_passenger" depart="294.77" departLane="best" from="168740955#1" to="-54570758#1"/>
    <trip id="veh279" type="veh_passenger" depart="296.89" departLane="best" from="290044165" to="-54613281#1"/>
    <trip id="veh280" type="veh_passenger" depart="297.96" departLane="best" from="175903534" to="-355367889"/>
    <trip id="veh283" type="veh_passenger" depart="301.15" departLane="best" from="121252916" to="355336294"/>
    <trip id="veh285" type="veh_passenger" depart="303.28" departLane="best" from="-354705279" to="-121252933#0"/>
    <trip id="veh286" type="veh_passenger" depart="304.34" departLane="best" departSpeed="max" from="-168740957" to="-320357214"/>
    <trip id="veh288" type="veh_passenger" depart="306.47" departLane="best" from="121252915" to="-355367889"/>
    <trip id="veh289" type="veh_passenger" depart="307.54" departLane="best" from="659390939#0" to="121252932#3"/>
    <trip id="veh291" type="veh_passenger" depart="309.66" departLane="best" from="54570756#7" to="121252916"/>
    <trip id="veh293" type="veh_passenger" depart="311.79" departLane="best" departSpeed="max" from="106116297" to="109898710#0"/>
    <trip id="veh294" type="veh_passenger" depart="312.86" departLane="best" from="54613284#1" to="121252911"/>
    <trip id="veh295" type="veh_passenger" depart="313.92" departLane="best" from="43967726#0" to="105463033"/>
    <trip id="veh297" type="veh_passenger" depart="316.05" departLane="best" from="121252930#2" to="-54570758#1"/>
    <trip id="veh299" type="veh_passenger" depart="318.18" departLane="best" from="353879487#0" to="158377998#7"/>
    <trip id="veh300" type="veh_passenger" depart="319.24" departLane="best" from="353879509#0" to="-283422196#2"/>
    <trip id="veh301" type="veh_passenger" depart="320.30" departLane="best" departSpeed="max" from="121252908#0" to="109898722#0"/>
    <trip id="veh302" type="veh_passenger" depart="321.37" departLane="best" from="105463036" to="54570759#1"/>
    <trip id="veh303" type="veh_passenger" depart="322.43" departLane="best" from="908601342" to="-54570758#1"/>
    <trip id="veh309" type="veh_passenger" depart="328.82" departLane="best" from="-104656477#1" to="109898722#0"/>
    <trip id="veh312" type="veh_passenger" depart="332.01" departLane="best" from="175903534" to="109898722#5"/>
    <trip id="veh313" type="veh_passenger" depart="333.07" departLane="best" from="168735572#0" to="607937697"/>
    <trip id="veh316" type="veh_passenger" depart="336.27" departLane="best" from="105463031#0" to="121252931#1"/>
    <trip id="veh317" type="veh_passenger" depart="337.33" departLane="best" from="158377998#7" to="560954812#2"/>
    <trip id="veh318" type="veh_passenger" depart="338.40" departLane="best" from="43967726#6" to="-121252921#1"/>
    <trip id="veh322" type="veh_passenger" depart="342.65" departLane="best" from="168735572#1" to="320358931"/>
    <trip id="veh323" type="veh_passenger" depart="343.72" departLane="best" from="560954812#0" to="121252917"/>
    <trip id="veh324" type="veh_passenger" depart="344.78" departLane="best" from="109898710#1" to="-121252928#1"/>
    <trip id="veh325" type="veh_passenger" depart="345.84" departLane="best" from="-109898710#4" to="107176909"/>
    <trip id="veh326" type="veh_passenger" depart="346.91" departLane="best" from="-121252922#3" to="659390939#2"/>
    <trip id="veh328" type="veh_passenger" depart="349.04" departLane="best" from="560954816" to="909437171"/>
    <trip id="veh329" type="veh_passenger" depart="350.10" departLane="best" departSpeed="max" from="168729296#0" to="-355367889"/>
    <trip id="veh330" type="veh_passenger" depart="351.16" departLane="best" from="-109898721" to="354704864"/>
    <trip id="veh331" type="veh_passenger" depart="352.23" departLane="best" departSpeed="max" from="106116297" to="175900195"/>
    <trip id="veh332" type="veh_passenger" depart="353.29" departLane="best" from="54570762#1" to="-168965412"/>
    <trip id="veh333" type="veh_passenger" depart="354.36" departLane="best" from="109898710#0" to="-121252931#1"/>
    <trip id="veh334" type="veh_passenger" depart="355.42" departLane="best" departSpeed="max" from="168729296#0" to="54570758#6"/>
    <trip id="veh335" type="veh_passenger" depart="356.49" departLane="best" from="-54570757#1" to="283422196#1"/>
    <trip id="veh337" type="veh_passenger" depart="358.61" departLane="best" departSpeed="max" from="358984585" to="121252932#1"/>
    <trip id="veh338" type="veh_passenger" depart="359.68" departLane="best" from="105463039#11" to="-54570758#5"/>
    <trip id="veh339" type="veh_passenger" depart="360.74" departLane="best" from="-43967726#5" to="659800333#2"/>
    <trip id="veh340" type="veh_passenger" depart="361.81" departLane="best" from="104656477#1" to="121252924"/>
    <trip id="veh341" type="veh_passenger" depart="362.87" departLane="best" from="908597730#0" to="175900206"/>
    <trip id="veh342" type="veh_passenger" depart="363.93" departLane="best" from="121252921#0" to="105463038#14"/>
    <trip id="veh343" type="veh_passenger" depart="365.00" departLane="best" from="-168735572#1" to="104656477#1"/>
    <trip id="veh346" type="veh_passenger" depart="368.19" departLane="best" from="121252923" to="607937697"/>
    <trip id="veh347" type="veh_passenger" depart="369.26" departLane="best" from="105463034" to="320358739"/>
    <trip id="veh351" type="veh_passenger" depart="373.51" departLane="best" from="121252926" to="-121252932#0"/>
    <trip id="veh352" type="veh_passenger" depart="374.58" departLane="best" from="908604577" to="560954816"/>
    <trip id="veh354" type="veh_passenger" depart="376.70" departLane="best" from="43967950#3" to="121252917"/>
    <trip id="veh355" type="veh_passenger" depart="377.77" departLane="best" departSpeed="max" from="235161321" to="121252922#0"/>
    <trip id="veh356" type="veh_passenger" depart="378.83" departLane="best" departSpeed="max" from="-354414388" to="54570756#4"/>
    <trip id="veh357" type="veh_passenger" depart="379.90" departLane="best" from="659390943#0" to="-353879496#1"/>
    <trip id="veh358" type="veh_passenger" depart="380.96" departLane="best" from="121252925" to="104682747#3"/>