<?xml version="1.0" encoding="UTF-8"?>

<!-- generated on Thu Apr 22 10:58:26 2021 by Eclipse SUMO polyconvert Version 1.9.0
<configuration xmlns:xsi="http://www.w3.org/2001/XMLSchema-instance" xsi:noNamespaceSchemaLocation="http://sumo.dlr.de/xsd/polyconvertConfiguration.xsd">

    <input>
        <net-file value="osm.net.xml"/>
        <osm-files value="osm_bbox.osm.xml"/>
        <osm.keep-full-type value="true"/>
        <type-file value="/usr/share/sumo/data/typemap/osmPolyconvert.typ.xml"/>
    </input>

    <output>
        <output-file value="osm.poly.xml"/>
    </output>

    <processing>
        <poi-layer-offset value="5"/>
    </processing>

    <report>
        <verbose value="true"/>
    </report>

</configuration>
-->

<additional xmlns:xsi="http://www.w3.org/2001/XMLSchema-instance" xsi:noNamespaceSchemaLocation="http://sumo.dlr.de/xsd/additional_file.xsd">
    <location netOffset="-390301.73,-5819272.32" convBoundary="-739.27,-369.29,3675.59,3073.80" origBoundary="13.372213,52.509571,13.436728,52.540419" projParameter="+proj=utm +zone=33 +ellps=WGS84 +datum=WGS84 +units=m +no_defs"/>

    <poly id="100950874" type="building.commercial" color="255,230,230" fill="1" layer="-1.00" shape="1346.591041,1056.610460 1327.261240,1048.069334 1323.116371,1037.745624 1334.849327,1017.378409 1348.204252,1024.605171 1346.591041,1056.610460"/>
    <poly id="100950876" type="building.commercial" color="255,230,230" fill="1" layer="-1.00" shape="1384.928570,998.377352 1372.025787,1022.331144 1371.927971,1065.163434 1371.996465,1070.714591 1373.365520,1074.612349 1375.321247,1078.029772 1377.958481,1081.265206 1382.953956,1085.249668 1386.131180,1086.815151 1405.943318,1094.466755 1437.768451,1026.863994 1384.928570,998.377352"/>
    <poly id="100950877" type="building.commercial" color="255,230,230" fill="1" layer="-1.00" shape="1416.778103,1033.470499 1397.083627,1075.345175 1390.831735,1073.168902 1388.155302,1071.536701 1386.551583,1068.690124 1385.500629,1063.216335 1387.209909,1031.553899 1412.610749,1031.637572 1416.778103,1033.470499"/>
    <poly id="100950878" type="building.commercial" color="255,230,230" fill="1" layer="-1.00" shape="1355.563269,1074.672344 1360.884207,1060.845424 1362.302733,1028.933471 1362.223155,1025.029444 1360.680572,1020.345468 1358.193956,1016.249884 1354.241305,1012.464925 1350.291743,1010.660614 1328.801688,999.285223 1309.547291,1033.416846 1307.774102,1039.476126 1307.908157,1045.226130 1309.599703,1051.731721 1316.454201,1059.358209 1355.563269,1074.672344"/>
    <poly id="109089263" type="building.residential" color="255,230,230" fill="1" layer="-1.00" shape="1095.796169,1224.206303 1097.516789,1241.805427 1099.257055,1241.622173 1100.406835,1254.905312 1099.744231,1255.020156 1098.423694,1262.193377 1104.054090,1263.281422 1112.137615,1226.547922 1111.629315,1225.969430 1112.447721,1223.391929 1110.120203,1223.721731 1109.585137,1222.854514 1095.796169,1224.206303"/>
    <poly id="109089264" type="building.residential" color="255,230,230" fill="1" layer="-1.00" shape="1077.889520,1256.562010 1083.527945,1256.481453 1083.517337,1256.003200 1088.905497,1255.961583 1088.915364,1256.406469 1094.242962,1256.388457 1092.596833,1238.476107 1091.349451,1237.624691 1078.423567,1238.412134 1077.065547,1239.610658 1077.889520,1256.562010"/>
    <poly id="121717767" type="leisure.park" color="207,245,201" fill="1" layer="-2.00" shape="1026.429378,835.721932 1051.262811,854.544144 1052.932651,852.403980 1052.182903,851.652806 1051.696762,850.851275 1051.442773,850.111359 1051.344335,849.345737 1051.383066,848.643838 1051.544165,847.950351 1051.900287,847.174645 1052.414426,846.484455 1053.047109,845.936293 1053.777983,845.530613 1054.532911,845.291313 1055.325216,845.206971 1056.612666,845.412091 1057.318871,845.730254 1057.918497,846.139802 1060.057706,843.432848 1062.593256,845.435213 1063.448472,844.514905 1064.292463,844.006569 1065.243155,843.718418 1066.110830,843.665789 1066.969377,843.813660 1067.880349,844.182920 1068.667102,844.766360 1069.239219,845.465838 1069.644191,846.280299 1069.844887,847.065909 1069.876465,847.877524 1069.751506,848.670357 1069.462486,849.411191 1068.797483,850.338406 1072.030100,852.859440 1070.062845,855.362278 1071.008352,856.676620 1071.219904,857.339585 1071.310075,858.038625 1071.272327,858.785013 1071.098150,859.501044 1070.800373,860.153051 1070.399349,860.740582 1069.814650,861.309932 1069.125225,861.748073 1068.317503,862.055307 1067.464880,862.174368 1066.751278,862.134558 1066.048283,861.960982 1065.149650,861.535811 1063.314884,863.891054 1081.578617,877.562398 1039.463314,933.066489 1050.742176,941.529181 1116.289789,855.449917 1045.359657,809.363435 1026.429378,835.721932"/>
    <poly id="125736711" type="building.viaduct" color="255,230,230" fill="1" layer="-1.00" shape="1406.688605,1145.971048 1449.078948,1162.693306 1465.044077,1167.970978 1483.050328,1172.858640 1501.147197,1176.320032 1512.352129,1178.119950 1522.995261,1179.375924 1534.321266,1180.205116 1544.204540,1180.554330 1552.212137,1180.488756 1559.586609,1180.337027 1569.173653,1180.180964 1581.870449,1179.155074 1592.868698,1177.743866 1602.021207,1176.351171 1613.477655,1174.173220 1624.536377,1171.503333 1618.155461,1154.552197 1598.660901,1158.799258 1581.052277,1161.157580 1567.790886,1162.129171 1557.027067,1162.478137 1546.317673,1162.525479 1525.677780,1161.623801 1505.541283,1158.930672 1494.976612,1156.927452 1473.177832,1151.500415 1465.859893,1148.991528 1456.681929,1145.856109 1440.916598,1139.795113 1416.359288,1128.720850 1406.688605,1145.971048"/>
    <poly id="126128623" type="building.yes" color="255,230,230" fill="1" layer="-1.00" shape="1151.186563,1129.862258 1156.710509,1139.921587 1158.909360,1143.277901 1161.709901,1146.220286 1164.545601,1148.605512 1184.527462,1162.684224 1176.974797,1171.642410 1175.861874,1170.120335 1171.938924,1166.145694 1166.150385,1160.376346 1150.137907,1144.407044 1145.389389,1147.283080 1140.268732,1150.823901 1133.889716,1141.384437 1151.186563,1129.862258"/>
    <poly id="126128623#1" type="tourism.hotel" color="207,245,201" fill="1" layer="-2.00" shape="1151.186563,1129.862258 1156.710509,1139.921587 1158.909360,1143.277901 1161.709901,1146.220286 1164.545601,1148.605512 1184.527462,1162.684224 1176.974797,1171.642410 1175.861874,1170.120335 1171.938924,1166.145694 1166.150385,1160.376346 1150.137907,1144.407044 1145.389389,1147.283080 1140.268732,1150.823901 1133.889716,1141.384437 1151.186563,1129.862258"/>
    <poly id="128565935" type="building.residential" color="255,230,230" fill="1" layer="-1.00" shape="1094.090520,1089.455239 1095.020320,1089.145300 1094.177120,1086.626902 1093.172694,1086.938496 1092.421387,1084.584975 1100.069857,1082.089683 1101.672138,1085.169884 1110.569015,1102.242664 1114.929146,1114.909364 1091.044971,1122.905648 1090.477824,1121.204572 1086.765699,1110.214918 1086.697982,1109.915974 1100.450159,1105.360232 1098.967043,1100.919818 1098.030708,1101.241029 1094.090520,1089.455239"/>
    <poly id="128565939" type="building.residential" color="255,230,230" fill="1" layer="-1.00" shape="1091.044971,1122.905648 1080.864742,1126.313938 1070.677990,1129.733522 1070.096528,1127.999383 1066.389172,1116.920616 1081.535017,1111.855416 1073.914334,1093.875296 1073.279336,1092.175728 1043.556365,1090.620725 1042.988090,1089.175615 1040.713257,1083.317319 1040.051356,1081.629479 1075.536973,1083.490615 1076.224764,1085.122247 1077.966319,1089.278732 1078.668170,1090.932308 1079.320312,1092.486838 1076.004467,1092.326705 1083.626131,1110.351317 1085.863165,1109.611788 1086.096045,1110.318791 1086.765699,1110.214918 1090.477824,1121.204572 1091.044971,1122.905648"/>
    <poly id="128565940" type="building.commercial" color="255,230,230" fill="1" layer="-1.00" shape="1135.321128,1089.609277 1115.953128,1088.848028 1113.104070,1083.414157 1113.124427,1082.801687 1130.372835,1083.476384 1130.337555,1083.721974 1130.397253,1083.965458 1130.544159,1084.162498 1130.757427,1084.291302 1130.995858,1084.330526 1131.164969,1084.304522 1135.321128,1089.609277"/>
    <poly id="133885752" type="building.roof" color="255,230,230" fill="1" layer="-1.00" shape="976.583793,873.527139 975.250690,872.488482 977.567097,869.510492 993.888356,848.562088 995.573888,849.882246 1007.723986,834.278716 1005.838245,832.807210 1021.517327,812.885773 1026.594458,806.452624 1032.493020,798.799472 1028.520337,796.272628 1025.745933,794.520387 1023.046898,792.799858 1014.523459,787.391804 1009.394164,784.133964 999.713853,777.983803 1001.914618,775.297712 1004.228254,772.497841 1046.627475,800.422085 1104.663313,838.660195 1126.500575,853.087041 1124.053313,856.290410 1049.928347,953.186729 1038.457695,944.338828 1033.416521,940.455866 1035.422947,937.885376 1037.620939,935.076956 1048.304626,943.330296 1049.222984,944.033217 1083.121078,899.672150 1116.960466,855.390537 1100.284432,844.443504 1061.887539,819.434494 1042.058781,806.521231 1037.465136,803.540797 999.313423,853.527000 974.435314,885.292227 988.139312,895.970980 989.962493,897.377101 988.031195,899.968197 985.902292,902.830744 968.203324,888.924658 934.312128,862.036182 938.263148,856.863111 950.067742,866.059459 956.926710,871.404208 958.660477,872.756665 956.502218,875.519728 968.030417,884.499701 970.294267,881.600768 976.583793,873.527139"/>
    <poly id="147686950" type="building.residential" color="255,230,230" fill="1" layer="-1.00" shape="1307.914794,1278.883447 1286.040656,1286.901074 1284.468827,1282.429192 1306.462248,1274.586960 1307.914794,1278.883447"/>
    <poly id="147686951" type="building.apartments" color="255,230,230" fill="1" layer="-1.00" shape="1284.468827,1282.429192 1286.040656,1286.901074 1278.864343,1289.252099 1271.653982,1291.904334 1264.586716,1294.275222 1258.905469,1296.404001 1257.749044,1291.689248 1260.387632,1290.696096 1284.468827,1282.429192"/>
    <poly id="147686953" type="building.residential" color="255,230,230" fill="1" layer="-1.00" shape="1360.214148,1344.402682 1356.269394,1336.055236 1345.881122,1339.556610 1346.900395,1342.371595 1345.444706,1344.985411 1346.405739,1348.235662 1360.214148,1344.402682"/>
    <poly id="147686957" type="building.residential" color="255,230,230" fill="1" layer="-1.00" shape="1400.924659,1162.478340 1392.718515,1159.399441 1389.972205,1159.515820 1386.942649,1160.328376 1381.074432,1164.753427 1388.836875,1174.162596 1390.850579,1172.838384 1396.240154,1173.164287 1400.924659,1162.478340"/>
    <poly id="147686963" type="building.residential" color="255,230,230" fill="1" layer="-1.00" shape="1330.483415,1266.054554 1333.658868,1273.985029 1334.360117,1275.616397 1323.387685,1279.408932 1322.796206,1277.830774 1321.652749,1274.005930 1307.914794,1278.883447 1306.462248,1274.586960 1317.863433,1270.540091 1330.483415,1266.054554"/>
    <poly id="147686966" type="building.residential" color="255,230,230" fill="1" layer="-1.00" shape="1213.086230,1217.411340 1214.720428,1217.341753 1226.183978,1217.332615 1227.668671,1230.430311 1227.641658,1243.305558 1227.789745,1257.957345 1214.301465,1258.478698 1214.319733,1243.678566 1222.012716,1243.508142 1221.693945,1231.875720 1215.655981,1231.998351 1213.828881,1231.938679 1213.086230,1217.411340"/>
    <poly id="154321042" type="building.yes" color="255,230,230" fill="1" layer="-1.00" shape="1086.434424,1210.037046 1102.840076,1208.538182 1098.323090,1194.917995 1084.879904,1203.294802 1086.434424,1210.037046"/>
    <poly id="159534658" type="waterway.river" color="181,209,209" fill="0" layer="-4.00" shape="1655.809862,240.270236 1603.831526,254.825694 1550.529546,293.357468 1512.563370,332.185386 1475.815222,373.267864 1427.238638,442.130601 1406.269172,475.587459 1312.209388,635.368214 1294.495782,666.494664 1264.209106,716.237823 1236.704954,767.154736 1205.245695,816.612706 1167.526528,865.664371 1154.479164,885.515871 1138.214295,910.869007 1115.450072,934.830692 1077.942851,962.446623 1010.509816,991.305568 970.898752,1006.661891 923.124501,1026.083400 848.503564,1055.482642 759.011692,1071.137372 740.938857,1073.075063 667.413621,1083.324309 579.947805,1096.044045 545.527415,1093.873431 430.634655,1083.215993 409.645747,1080.702142 351.702369,1070.456205 327.380028,1060.316780 255.682075,994.685099 186.999208,934.662106 150.181278,902.146976 123.099981,877.971447 84.631865,851.224469 25.703375,821.397307 -69.948152,777.671802 -165.263915,749.296821 -203.377734,748.137822 -249.796450,746.842846 -276.853385,751.089095 -297.768560,754.362973 -318.609757,760.929087 -338.945529,769.141968 -362.653942,781.625881 -381.409849,792.774545 -399.935265,806.321694 -417.428959,821.069771 -437.255740,843.748820 -446.128646,861.207489 -447.526901,865.133645 -453.086134,879.925042 -455.863966,892.228037 -457.397730,904.614329 -458.036863,913.619921 -461.576640,947.572392 -465.376065,972.695282 -471.494992,1001.219808 -482.275653,1024.674824 -490.057497,1041.730705 -496.535734,1050.656266 -500.707321,1056.814759 -514.533666,1072.804909 -533.404665,1092.948026 -555.415084,1110.213048 -584.835546,1133.587269 -617.319110,1152.946792 -651.016382,1169.941420 -678.215645,1178.599785 -707.007441,1184.656928 -739.267528,1189.512766"/>
    <poly id="15968753" type="building.yes" color="255,230,230" fill="1" layer="-1.00" shape="1031.016040,703.168094 1003.566310,749.400460 1077.983973,793.528460 1082.267159,786.489834 1082.987563,785.305457 1105.791726,747.811582 1083.096983,734.227273 1068.925487,725.739631 1054.617507,717.221673 1031.016040,703.168094"/>
    <poly id="15968753#1" type="tourism.museum" color="207,245,201" fill="1" layer="-2.00" shape="1031.016040,703.168094 1003.566310,749.400460 1077.983973,793.528460 1082.267159,786.489834 1082.987563,785.305457 1105.791726,747.811582 1083.096983,734.227273 1068.925487,725.739631 1054.617507,717.221673 1031.016040,703.168094"/>
    <poly id="15968756" type="building.yes" color="255,230,230" fill="1" layer="-1.00" shape="1063.994106,764.762289 1064.635807,763.702059 1063.789706,763.197828 1066.107826,759.374148 1069.719577,761.541817 1073.282129,755.676440 1069.718114,753.518837 1071.794093,750.101125 1072.695212,750.637519 1073.324088,749.610958 1085.143848,756.737557 1084.724925,757.436759 1085.598657,757.962636 1077.203700,771.813529 1076.364386,771.309146 1075.958295,771.974682 1063.994106,764.762289"/>
    <poly id="15968756#1" type="tourism.museum" color="207,245,201" fill="1" layer="-2.00" shape="1063.994106,764.762289 1064.635807,763.702059 1063.789706,763.197828 1066.107826,759.374148 1069.719577,761.541817 1073.282129,755.676440 1069.718114,753.518837 1071.794093,750.101125 1072.695212,750.637519 1073.324088,749.610958 1085.143848,756.737557 1084.724925,757.436759 1085.598657,757.962636 1077.203700,771.813529 1076.364386,771.309146 1075.958295,771.974682 1063.994106,764.762289"/>
    <poly id="159958500" type="building.commercial" color="255,230,230" fill="1" layer="-1.00" shape="1848.224370,868.764834 1881.553527,827.203982 1883.511421,828.574079 1885.127663,826.758091 1904.082091,843.544061 1928.793864,861.939302 1926.879974,864.418352 1892.887880,908.552825 1878.900182,896.297745 1846.823276,874.492999 1849.850309,870.164483 1848.224370,868.764834"/>
    <poly id="16000014" type="leisure.park" color="207,245,201" fill="1" layer="-2.00" shape="1022.568699,698.136673 1031.016040,703.168094 1054.617507,717.221673 1068.925487,725.739631 1083.096983,734.227273 1105.791726,747.811582 1113.977380,752.682029 1188.541615,627.001142 1097.098599,573.723663 1022.568699,698.136673"/>
    <poly id="161907951" type="man_made.bridge" color="255,230,230" fill="1" layer="-1.00" shape="1797.261260,1042.787475 1788.729429,1049.874559 1776.611706,1059.944977 1771.566040,1064.139992 1774.894839,1066.737246 1779.528637,1070.340607 1784.007618,1074.003022 1787.211102,1076.458388 1790.036298,1079.612000 1795.975265,1075.297172 1810.144181,1064.981315 1818.828848,1058.669831 1816.353634,1056.921693 1811.463524,1053.390710 1807.386438,1050.409325 1800.021012,1044.818651 1797.261260,1042.787475"/>
    <poly id="162018681" type="building.residential" color="255,230,230" fill="1" layer="-1.00" shape="1154.539675,1185.292491 1155.799978,1188.257885 1155.279207,1188.647768 1155.932902,1191.192630 1163.996624,1190.902625 1182.603191,1190.401246 1182.401574,1187.735086 1181.933231,1187.734337 1180.789270,1184.198850 1177.611392,1184.135743 1174.954226,1180.311091 1170.681386,1174.330107 1158.450877,1183.225082 1157.608909,1183.822381 1157.420317,1183.581753 1154.539675,1185.292491"/>
    <poly id="165832995" type="leisure.playground" color="207,245,201" fill="1" layer="-2.00" shape="1512.911982,1284.565242 1519.119076,1284.728556 1519.456300,1272.035652 1513.249190,1271.872337 1512.911982,1284.565242"/>
    <poly id="16603261" type="landuse.grass" color="194,194,130" fill="1" layer="-3.00" shape="1645.415587,906.395426 1645.848893,906.652927 1646.470199,906.817261 1647.113981,906.769674 1647.658854,906.546228 1648.112341,906.180141 1664.066386,885.698395 1664.433310,885.100539 1664.587709,884.407224 1664.563100,883.907026 1664.416616,883.420644 1664.162563,882.981146 1663.739144,882.556511 1663.216658,882.256465 1662.704636,882.123101 1619.953021,879.550066 1619.173793,879.611773 1618.440180,879.895025 1617.892693,880.307700 1617.463487,880.851295 1617.160819,881.592395 1617.083264,882.384165 1617.220848,883.082165 1617.526569,883.709690 1617.993153,884.244644 1645.415587,906.395426"/>
    <poly id="166695111" type="building.residential" color="255,230,230" fill="1" layer="-1.00" shape="1712.578206,1356.938315 1708.344685,1341.931556 1736.271003,1334.427786 1738.118254,1342.176361 1726.969964,1344.770086 1726.700080,1343.919213 1723.174394,1344.697993 1722.672384,1342.861886 1721.160419,1343.240181 1721.484902,1344.412549 1722.019762,1344.968261 1724.402877,1354.240620 1712.578206,1356.938315"/>
    <poly id="166695113" type="building.residential" color="255,230,230" fill="1" layer="-1.00" shape="1733.345764,1322.730436 1732.224296,1318.348643 1729.462263,1307.281968 1735.095952,1306.067250 1737.328588,1316.210884 1740.120418,1315.392656 1740.413838,1314.540492 1745.493862,1313.148824 1745.893536,1312.806185 1743.424381,1301.477113 1743.801579,1301.346394 1755.998615,1297.984045 1756.297673,1299.234868 1757.351050,1298.989097 1758.114593,1302.221517 1757.054678,1302.478560 1758.911631,1310.360458 1759.965005,1310.114687 1760.728545,1313.347108 1759.675170,1313.592878 1759.967689,1314.854974 1742.928189,1319.915314 1733.345764,1322.730436"/>
    <poly id="166695114" type="building.residential" color="255,230,230" fill="1" layer="-1.00" shape="1736.271003,1334.427786 1734.759263,1328.352078 1744.391862,1325.658257 1742.928189,1319.915314 1759.967689,1314.854974 1760.409122,1316.714675 1761.163185,1317.977725 1761.770701,1319.366407 1762.217611,1320.858779 1762.475064,1322.377581 1762.549109,1323.889299 1762.438765,1325.349443 1762.872677,1327.175928 1748.334236,1331.157386 1736.271003,1334.427786"/>
    <poly id="16872940" type="leisure.park" color="207,245,201" fill="1" layer="-2.00" shape="1602.023724,613.084279 1467.287174,770.388269 1451.359176,769.304828 1394.972512,728.500251 1347.853262,690.273163 1332.922802,680.599780 1322.954872,670.950161 1320.306813,667.236502 1319.592107,659.785700 1330.384367,640.730137 1330.010642,639.792560 1348.381479,606.448449 1347.041708,605.721411 1348.972757,602.184628 1350.305743,602.911817 1356.803377,591.006219 1408.594384,504.612430 1415.152343,494.808701 1508.868371,554.907543 1602.023724,613.084279"/>
    <poly id="16873207" type="leisure.park" color="207,245,201" fill="1" layer="-2.00" shape="1094.041676,811.477278 1133.609199,837.551092 1145.591433,840.690540 1153.056579,834.805488 1194.441889,798.647284 1198.575332,792.502292 1130.029038,752.904812 1094.041676,811.477278"/>
    <poly id="170013760" type="building.yes" color="255,230,230" fill="1" layer="-1.00" shape="1224.106035,1202.578919 1234.938972,1201.982880 1234.790007,1196.789584 1221.786207,1187.630285 1217.328814,1189.553955 1217.742622,1190.156807 1222.563812,1195.157581 1224.106035,1202.578919"/>
    <poly id="170063224" type="building.train_station" color="255,230,230" fill="1" layer="-1.00" shape="1394.476342,1118.577915 1387.533338,1115.226280 1379.826463,1111.401936 1377.715798,1110.491649 1375.645345,1109.558218 1355.352349,1100.726723 1314.542876,1085.550379 1283.900392,1076.180436 1266.590860,1071.211295 1264.257127,1070.650951 1262.927071,1070.357701 1261.576663,1070.064903 1247.742000,1066.921705 1218.635661,1062.870524 1193.330807,1061.906653 1179.079096,1061.387877 1178.551617,1063.313515 1177.424134,1066.954975 1175.915716,1072.396423 1174.693741,1076.674251 1173.918936,1079.384305 1204.180255,1083.487523 1225.340312,1086.401564 1255.806157,1094.228317 1257.199234,1094.609189 1258.327484,1094.984799 1348.521081,1128.196125 1349.906116,1124.226310 1366.572180,1130.189200 1368.652750,1130.966616 1370.733320,1131.744033 1385.369273,1137.985574 1394.476342,1118.577915"/>
    <poly id="170063225" type="building.train_station" color="255,230,230" fill="1" layer="-1.00" shape="1253.131220,1077.340204 1249.067132,1095.189868 1283.783608,1104.936756 1317.392100,1115.843423 1347.129916,1126.980615 1353.964392,1110.393933 1304.592566,1092.302517 1276.273595,1083.337425 1253.131220,1077.340204"/>
    <poly id="170108655" type="building.commercial" color="255,230,230" fill="1" layer="-1.00" shape="1152.118138,1084.618973 1151.019908,1088.660385 1151.368119,1088.752816 1148.563905,1098.507128 1146.926012,1104.229647 1138.106657,1093.097236 1137.290460,1093.326754 1137.062645,1092.541744 1135.681765,1092.405442 1136.313325,1090.889213 1135.321128,1089.609277 1131.164969,1084.304522 1131.446452,1084.142495 1132.892936,1086.013249 1133.079441,1085.853328 1134.006299,1084.185893 1134.047997,1083.617460 1147.954154,1084.166018 1147.946009,1084.411006 1152.118138,1084.618973"/>
    <poly id="170108656" type="building.residential" color="255,230,230" fill="1" layer="-1.00" shape="1101.672138,1085.169884 1108.677725,1081.843163 1116.248982,1096.374867 1115.623966,1097.879826 1116.572000,1100.228989 1121.402935,1098.619647 1121.213724,1098.045206 1122.091361,1096.300966 1129.240019,1093.916950 1130.990195,1094.790613 1131.179405,1095.365054 1137.290460,1093.326754 1138.106657,1093.097236 1146.926012,1104.229647 1130.930954,1109.569404 1114.929146,1114.909364 1110.569015,1102.242664 1101.672138,1085.169884"/>
    <poly id="170131442" type="landuse.grass" color="194,194,130" fill="1" layer="-3.00" shape="1339.121710,993.893657 1348.081008,998.480294 1352.046675,990.580981 1349.306526,989.139379 1349.163985,988.218942 1348.767824,987.493285 1347.883440,986.789558 1346.880244,986.544692 1345.919828,986.699472 1345.189199,987.116231 1343.177778,986.092485 1339.121710,993.893657"/>
    <poly id="170852439" type="landuse.village_green" color="242,242,204" fill="1" layer="-3.00" shape="1269.177334,1031.072387 1287.199899,1040.343267 1319.373368,978.106619 1301.584021,968.952857 1295.882230,979.984116 1293.650990,978.842852 1272.119646,1020.491654 1274.117501,1021.515671 1269.177334,1031.072387"/>
    <poly id="170852439#1" type="leisure.park" color="207,245,201" fill="1" layer="-2.00" shape="1269.177334,1031.072387 1287.199899,1040.343267 1319.373368,978.106619 1301.584021,968.952857 1295.882230,979.984116 1293.650990,978.842852 1272.119646,1020.491654 1274.117501,1021.515671 1269.177334,1031.072387"/>
    <poly id="170855131" type="building.commercial" color="255,230,230" fill="1" layer="-1.00" shape="1345.894870,822.356532 1393.807200,860.588282 1435.197116,809.220648 1402.677382,783.166643 1378.274841,763.520844 1345.894870,822.356532"/>
    <poly id="170855133" type="building.office" color="255,230,230" fill="1" layer="-1.00" shape="1330.794021,849.752965 1342.043834,829.307461 1367.670193,849.971999 1365.761636,852.373266 1356.515815,863.994708 1330.794021,849.752965"/>
    <poly id="170860163" type="building.yes" color="255,230,230" fill="1" layer="-1.00" shape="1515.076483,953.026562 1516.998186,951.526397 1517.640408,949.564883 1521.564059,945.895130 1525.351460,948.348560 1535.820557,959.834672 1535.524119,962.701009 1529.772335,967.190061 1527.083536,967.149302 1516.636506,955.740614 1515.076483,953.026562"/>
    <poly id="170860164" type="building.yes" color="255,230,230" fill="1" layer="-1.00" shape="1497.994657,968.815645 1500.031436,967.301803 1500.309508,965.448480 1505.119230,961.024715 1507.167195,962.782140 1514.610443,970.952270 1515.545996,970.286203 1516.573660,971.331750 1515.820887,972.283096 1517.831331,974.186012 1517.618283,977.139529 1512.386902,982.140103 1509.917078,981.871965 1507.924188,979.534689 1507.098661,980.265092 1506.047695,979.086531 1506.506379,978.341977 1498.800259,970.255560 1497.994657,968.815645"/>
    <poly id="171826988" type="landuse.grass" color="194,194,130" fill="1" layer="-3.00" shape="1736.936427,1065.682242 1747.072430,1053.162831 1742.038736,1048.355410 1738.473845,1048.289340 1737.148799,1050.377152 1738.032702,1053.217451 1736.710599,1055.438729 1737.476962,1059.105059 1736.022121,1061.462795 1735.952641,1064.468770 1736.936427,1065.682242"/>
    <poly id="171826989" type="landuse.grass" color="194,194,130" fill="1" layer="-3.00" shape="1547.919708,872.705557 1550.811849,875.189906 1548.831288,877.715093 1553.858528,881.598881 1559.254207,884.339524 1619.537977,931.792068 1677.430772,977.372984 1734.023762,1021.926086 1739.669813,1014.791247 1564.906965,877.204334 1561.429284,873.408724 1557.586895,870.311079 1555.133718,868.340029 1553.530288,870.422910 1551.758440,869.182365 1550.812270,868.446583 1547.919708,872.705557"/>
    <poly id="171826996" type="landuse.grass" color="194,194,130" fill="1" layer="-3.00" shape="1450.664159,831.834976 1442.894511,826.109090 1393.855288,890.386914 1390.809450,888.629347 1347.501298,945.280942 1358.128460,950.698651 1450.664159,831.834976"/>
    <poly id="171829341" type="landuse.grass" color="194,194,130" fill="1" layer="-3.00" shape="1548.372682,862.480435 1494.366906,820.286888 1492.284444,821.579188 1490.571551,821.472374 1488.782192,824.048999 1498.331676,831.070943 1539.931046,865.660178 1540.255938,867.155226 1542.977552,868.986810 1548.372682,862.480435"/>
    <poly id="171829342" type="landuse.grass" color="194,194,130" fill="1" layer="-3.00" shape="1811.703505,1083.385336 1816.949248,1075.947833 1806.327758,1067.669246 1798.970212,1073.217093 1811.703505,1083.385336"/>
    <poly id="173194947" type="amenity.shelter" color="237,199,199" fill="1" layer="-1.00" shape="1949.987427,961.999264 1951.088646,962.998770 1959.824100,953.426060 1958.722881,952.426552 1949.987427,961.999264"/>
    <poly id="173194949" type="amenity.shelter" color="237,199,199" fill="1" layer="-1.00" shape="1943.433647,955.967672 1952.236699,946.382333 1951.502388,945.708581 1942.699337,955.293921 1943.433647,955.967672"/>
    <poly id="173194950" type="amenity.shelter" color="237,199,199" fill="1" layer="-1.00" shape="1900.487618,1169.304480 1901.118635,1168.678574 1898.466906,1165.999568 1897.835889,1166.625475 1900.487618,1169.304480"/>
    <poly id="173194952" type="amenity.shelter" color="237,199,199" fill="1" layer="-1.00" shape="1930.171488,1185.475996 1929.467314,1186.170274 1923.933912,1180.539106 1924.638330,1179.855950 1930.171488,1185.475996"/>
    <poly id="173194954" type="amenity.shelter" color="237,199,199" fill="1" layer="-1.00" shape="1910.647109,1179.429476 1911.118737,1178.962865 1904.941904,1172.778375 1904.470277,1173.244986 1910.647109,1179.429476"/>
    <poly id="173194955" type="amenity.shelter" color="237,199,199" fill="1" layer="-1.00" shape="1937.068493,1192.312321 1936.210735,1193.121253 1933.868724,1190.635710 1934.719698,1189.826926 1937.068493,1192.312321"/>
    <poly id="173197453" type="landuse.grass" color="194,194,130" fill="1" layer="-3.00" shape="2004.370952,1282.111034 2005.479462,1281.285471 2070.059465,1362.509912 2067.151558,1364.532278 2052.184442,1345.621753 2035.505594,1323.566427 2004.370952,1282.111034"/>
    <poly id="173278836" type="amenity.shelter" color="237,199,199" fill="1" layer="-1.00" shape="1497.323930,837.380293 1507.364110,845.415150 1508.295414,844.248435 1498.255479,836.224698 1497.323930,837.380293"/>
    <poly id="175149971" type="tourism.museum" color="207,245,201" fill="1" layer="-2.00" shape="1292.309066,721.346485 1295.587689,723.187863 1304.310402,728.102373 1287.734377,757.857249 1275.533871,750.994536 1285.854974,732.750476 1292.309066,721.346485"/>
    <poly id="179341903" type="landuse.grass" color="194,194,130" fill="1" layer="-3.00" shape="1834.013434,1091.996227 1828.190380,1086.783260 1829.236626,1085.903392 1824.594061,1081.899586 1822.101127,1079.962668 1816.380322,1087.711074 1833.967489,1104.393344 1835.295405,1103.051042 1836.883908,1101.213389 1835.300759,1097.131061 1832.109505,1093.996615 1834.013434,1091.996227"/>
    <poly id="179341904" type="landuse.grass" color="194,194,130" fill="1" layer="-3.00" shape="1886.331460,1151.522712 1858.543531,1124.682877 1857.945699,1125.274676 1850.235645,1117.588412 1850.605022,1117.101792 1847.263145,1114.215460 1845.694505,1116.030417 1856.561870,1126.851881 1861.122590,1129.299659 1861.882995,1128.693153 1863.153872,1130.000475 1862.207016,1131.078444 1870.948600,1139.376283 1879.934843,1148.614593 1880.632548,1148.243150 1885.189580,1152.682863 1886.331460,1151.522712"/>
    <poly id="179341905" type="landuse.grass" color="194,194,130" fill="1" layer="-3.00" shape="1887.566603,1150.282615 1888.522694,1149.315724 1870.726154,1132.048119 1856.981050,1118.764041 1856.455393,1119.242974 1887.566603,1150.282615"/>