<?xml version="1.0" encoding="UTF-8"?>

<!-- generated on 2021-05-04 16:41:06 by Eclipse SUMO polyconvert Version 1.9.1
<configuration xmlns:xsi="http://www.w3.org/2001/XMLSchema-instance" xsi:noNamespaceSchemaLocation="http://sumo.dlr.de/xsd/polyconvertConfiguration.xsd">

    <input>
        <net-file value="osm.net.xml"/>
        <osm-files value="osm_bbox.osm.xml"/>
        <osm.keep-full-type value="true"/>
        <type-file value="/usr/share/sumo/data/typemap/osmPolyconvert.typ.xml"/>
    </input>

    <output>
        <output-file value="osm.poly.xml"/>
    </output>

    <processing>
        <poi-layer-offset value="5"/>
    </processing>

    <report>
        <verbose value="true"/>
    </report>

</configuration>
-->

<additional xmlns:xsi="http://www.w3.org/2001/XMLSchema-instance" xsi:noNamespaceSchemaLocation="http://sumo.dlr.de/xsd/additional_file.xsd">
    <location netOffset="-520685.18,-4493046.28" convBoundary="-4233.69,-9328.96,36673.80,25387.65" origBoundary="-8.805493,40.503963,-8.320615,40.816521" projParameter="+proj=utm +zone=29 +ellps=WGS84 +datum=WGS84 +units=m +no_defs"/>

    <poly id="100723315" type="leisure.playground" color="207,245,201" fill="1" layer="-2.00" shape="490.135991,3191.413530 516.622831,3190.556489 511.968222,3179.476221 505.088837,3165.459139 497.513156,3152.372510 495.804585,3152.334348 490.365960,3152.196773 490.135991,3191.413530"/>
    <poly id="104656471" type="leisure.pitch" color="207,245,201" fill="1" layer="-2.00" shape="529.374544,3144.504308 546.952242,3144.410114 546.749915,3108.577722 529.172101,3108.683017 529.374544,3144.504308"/>
    <poly id="104656471#1" type="sport.tennis" color="79,230,125" fill="1" layer="-2.00" shape="529.374544,3144.504308 546.952242,3144.410114 546.749915,3108.577722 529.172101,3108.683017 529.374544,3144.504308"/>
    <poly id="104656482" type="leisure.recreation_ground" color="207,245,201" fill="1" layer="-2.00" shape="504.090575,3266.546871 525.613637,3262.112535 516.860361,3220.017403 495.345609,3224.462889 504.090575,3266.546871"/>
    <poly id="104656484" type="leisure.miniature_golf" color="207,245,201" fill="1" layer="-2.00" shape="519.815000,3379.481874 503.838161,3313.622597 498.651332,3269.628380 528.490621,3285.498000 527.736523,3288.914749 534.439574,3293.518283 546.875525,3375.951402 519.815000,3379.481874"/>
    <poly id="104656492" type="leisure.pitch" color="207,245,201" fill="1" layer="-2.00" shape="531.454441,3204.207730 549.245017,3203.570233 547.990594,3168.867069 530.199935,3169.504569 531.454441,3204.207730"/>
    <poly id="104656492#1" type="sport.tennis" color="79,230,125" fill="1" layer="-2.00" shape="531.454441,3204.207730 549.245017,3203.570233 547.990594,3168.867069 530.199935,3169.504569 531.454441,3204.207730"/>
    <poly id="104657731" type="leisure.marina" color="207,245,201" fill="1" layer="-2.00" shape="595.216120,2446.671482 637.821114,2419.253508 643.104125,2261.244743 607.301903,2240.617835 602.214944,2256.321316 574.378870,2269.306850 568.395190,2341.352919 565.214075,2394.802892 595.216120,2446.671482"/>
    <poly id="104657732" type="amenity.place_of_worship" color="237,199,199" fill="1" layer="-1.00" shape="272.579509,2838.773777 263.724685,2832.077574 272.469903,2820.613367 274.884086,2822.440613 277.872759,2818.519519 286.381513,2824.948357 284.411714,2827.529181 282.343608,2825.969314 281.061531,2827.652950 272.579509,2838.773777"/>
    <poly id="104657732#1" type="building.chapel" color="255,230,230" fill="1" layer="-1.00" shape="272.579509,2838.773777 263.724685,2832.077574 272.469903,2820.613367 274.884086,2822.440613 277.872759,2818.519519 286.381513,2824.948357 284.411714,2827.529181 282.343608,2825.969314 281.061531,2827.652950 272.579509,2838.773777"/>
    <poly id="104657734" type="leisure.marina" color="207,245,201" fill="1" layer="-2.00" shape="601.894701,3471.915391 640.661993,3518.381296 612.207629,3737.253719 542.851547,3739.963881 537.907596,3679.208808 536.059682,3630.184511 538.757620,3603.573629 545.502731,3551.809861 554.986785,3551.026593 557.898432,3547.371795 552.620040,3541.573466 553.765769,3531.331138 558.610481,3532.010982 560.515790,3516.431568 555.746781,3515.896244 555.912778,3511.079178 564.788656,3495.208850 569.140018,3496.864121 595.395466,3484.850883 598.185742,3479.286499 601.894701,3471.915391"/>
    <poly id="104657742" type="amenity.place_of_worship" color="237,199,199" fill="1" layer="-1.00" shape="260.215347,2798.566977 268.799022,2805.440017 274.722292,2804.790671 279.748583,2804.249807 286.641539,2795.699783 285.445664,2784.795914 276.861981,2777.922854 265.912382,2779.113069 259.019434,2787.663112 260.215347,2798.566977"/>
    <poly id="104657742#1" type="building.church" color="255,230,230" fill="1" layer="-1.00" shape="260.215347,2798.566977 268.799022,2805.440017 274.722292,2804.790671 279.748583,2804.249807 286.641539,2795.699783 285.445664,2784.795914 276.861981,2777.922854 265.912382,2779.113069 259.019434,2787.663112 260.215347,2798.566977"/>
    <poly id="104683406" type="amenity.place_of_worship" color="237,199,199" fill="1" layer="-1.00" shape="949.930238,5524.228744 949.959318,5522.952288 932.963366,5522.658670 932.882556,5527.187382 945.887406,5527.413892 941.263275,5532.761921 937.529187,5528.643934 931.187412,5528.536700 920.906889,5536.543495 920.724582,5541.083013 930.880452,5549.781898 939.082436,5549.927839 947.753767,5539.885023 946.952994,5539.005766 952.264389,5532.860513 952.416219,5524.269276 949.930238,5524.228744"/>
    <poly id="104683406#1" type="building.church" color="255,230,230" fill="1" layer="-1.00" shape="949.930238,5524.228744 949.959318,5522.952288 932.963366,5522.658670 932.882556,5527.187382 945.887406,5527.413892 941.263275,5532.761921 937.529187,5528.643934 931.187412,5528.536700 920.906889,5536.543495 920.724582,5541.083013 930.880452,5549.781898 939.082436,5549.927839 947.753767,5539.885023 946.952994,5539.005766 952.264389,5532.860513 952.416219,5524.269276 949.930238,5524.228744"/>
    <poly id="104683407" type="tourism.camp_site" color="207,245,201" fill="1" layer="-2.00" shape="1116.950863,5687.403287 1124.142751,5697.459099 1127.175759,5701.253216 1130.840641,5705.837314 1137.968200,5714.749613 1140.685601,5725.236331 1141.872876,5729.824266 1146.379544,5747.220664 1136.709575,5760.423926 1115.604789,5760.073434 1115.557465,5764.679947 1096.414497,5764.313058 1086.377976,5764.117170 1076.349879,5763.932421 1076.490407,5756.362383 1076.629896,5749.147553 1062.204993,5748.872259 1046.495294,5748.426734 1047.548163,5712.209320 1014.716968,5711.147742 1014.553795,5720.704680 984.716708,5719.407761 984.282631,5740.696995 984.154209,5747.046029 984.045480,5752.440489 974.490922,5752.246157 966.990991,5752.102218 958.933043,5751.934463 940.043775,5751.546514 920.976933,5751.158097 891.797414,5750.584984 878.886031,5750.336636 875.850530,5750.283436 870.988707,5750.180542 884.558896,5578.630484 887.298549,5575.752335 891.487259,5574.732149 909.680893,5578.958677 1014.828282,5603.419042 1009.388501,5641.988036 1022.406956,5651.971940 1042.161272,5654.471692 1054.416988,5644.761379 1055.718162,5636.439909 1082.312925,5656.442835 1116.950863,5687.403287"/>
    <poly id="106116304" type="leisure.marina" color="207,245,201" fill="1" layer="-2.00" shape="1636.961743,4490.828222 1643.101816,4499.260707 1646.794692,4497.429131 1650.197977,4504.732274 1653.727600,4503.754938 1656.931735,4509.780947 1781.071106,4458.238351 1787.162810,4446.235065 1785.705455,4441.524116 1784.063848,4436.213192 1793.162300,4431.167809 1790.792966,4425.987890 1776.999202,4431.518617 1772.372529,4420.470906 1777.771528,4416.613179 1774.033302,4405.423844 1650.421787,4435.799778 1624.142274,4445.089643 1629.215427,4462.432498 1636.961743,4490.828222"/>
    <poly id="109898712" type="building.yes" color="255,230,230" fill="1" layer="-1.00" shape="552.137361,2560.226705 555.890809,2561.125436 556.575637,2558.296812 552.822188,2557.398081 552.137361,2560.226705"/>
    <poly id="109898712#1" type="shop.confectionery" color="237,199,255" fill="1" layer="-1.00" shape="552.137361,2560.226705 555.890809,2561.125436 556.575637,2558.296812 552.822188,2557.398081 552.137361,2560.226705"/>
    <poly id="109898713" type="building.yes" color="255,230,230" fill="1" layer="-1.00" shape="548.114019,2564.977262 552.966808,2566.012330 553.584117,2563.128011 548.731295,2562.104043 548.114019,2564.977262"/>
    <poly id="109898713#1" type="shop.confectionery" color="237,199,255" fill="1" layer="-1.00" shape="548.114019,2564.977262 552.966808,2566.012330 553.584117,2563.128011 548.731295,2562.104043 548.114019,2564.977262"/>
    <poly id="109898716" type="building.yes" color="255,230,230" fill="1" layer="-1.00" shape="556.499443,2561.282576 560.244430,2562.181285 560.929260,2559.352661 557.175812,2558.453928 556.499443,2561.282576"/>
    <poly id="109898717" type="building.yes" color="255,230,230" fill="1" layer="-1.00" shape="543.024440,2557.980659 546.777921,2558.868285 547.454287,2556.039636 543.700804,2555.152010 543.024440,2557.980659"/>
    <poly id="109898719" type="building.yes" color="255,230,230" fill="1" layer="-1.00" shape="470.875474,2703.167115 482.140456,2707.139739 484.545152,2700.397590 473.280193,2696.413861 470.875474,2703.167115"/>
    <poly id="109898719#1" type="tourism.information" color="207,245,201" fill="1" layer="-2.00" shape="470.875474,2703.167115 482.140456,2707.139739 484.545152,2700.397590 473.280193,2696.413861 470.875474,2703.167115"/>
    <poly id="109898726" type="building.yes" color="255,230,230" fill="1" layer="-1.00" shape="541.807191,2563.593943 546.660013,2564.617906 547.277289,2561.744687 542.424496,2560.709623 541.807191,2563.593943"/>
    <poly id="109898726#1" type="shop.confectionery" color="237,199,255" fill="1" layer="-1.00" shape="541.807191,2563.593943 546.660013,2564.617906 547.277289,2561.744687 542.424496,2560.709623 541.807191,2563.593943"/>
    <poly id="109898729" type="building.yes" color="255,230,230" fill="1" layer="-1.00" shape="547.716347,2559.070766 551.461368,2559.958370 552.146194,2557.129746 548.392713,2556.242117 547.716347,2559.070766"/>
    <poly id="109898729#1" type="shop.confectionery" color="237,199,255" fill="1" layer="-1.00" shape="547.716347,2559.070766 551.461368,2559.958370 552.146194,2557.129746 548.392713,2556.242117 547.716347,2559.070766"/>
    <poly id="109898730" type="building.yes" color="255,230,230" fill="1" layer="-1.00" shape="554.310936,2566.338073 559.163723,2567.373144 559.781035,2564.488826 554.928214,2563.464854 554.310936,2566.338073"/>
    <poly id="109898730#1" type="shop.confectionery" color="237,199,255" fill="1" layer="-1.00" shape="554.310936,2566.338073 559.163723,2567.373144 559.781035,2564.488826 554.928214,2563.464854 554.310936,2566.338073"/>
    <poly id="11280872" type="natural.sand" color="140,196,107" fill="1" layer="-4.00" shape="744.669780,3934.398332 747.712843,3794.032331 1039.251373,4151.564565 1243.739432,4370.319284 1252.851581,4394.955601 1249.717963,4422.264311 1321.880383,4503.820695 1477.801043,4588.290873 1355.024543,4583.752484 1275.042472,4564.501125 1224.925748,4538.400786 1200.024133,4519.456922 1176.118581,4501.115488 1094.334322,4470.116625 951.067390,4339.191998 744.669780,3934.398332"/>
    <poly id="11280905" type="natural.water" color="181,209,209" fill="0" layer="-4.00" shape="2069.861826,7499.287838 2056.114274,7480.441685 2062.515322,7477.208849 2147.488078,7594.767338 2205.554555,7691.685978 2251.691180,7783.240080 2299.047631,7895.478336 2335.884249,8000.324759 2363.502629,8095.296726 2384.020964,8176.238044 2392.369251,8215.448448 2370.248481,8286.000689 2373.598535,8293.315160 2379.565619,8290.824979 2382.539381,8296.817336 2378.552518,8298.592131 2375.992607,8306.332284 2381.362084,8319.358642 2393.018000,8314.144325 2404.313304,8340.665018 2392.660489,8344.891390 2403.894443,8374.819724 2424.116981,8384.662048 2437.721923,8453.937721 2431.117168,8454.938414 2430.991419,8451.885406 2420.104304,8454.571157 2448.873942,8526.369414 2472.863629,8528.808518 2478.191615,8541.479610 2454.045811,8553.903477 2457.543969,8562.450599 2481.045381,8550.657459 2485.087556,8558.218352 2463.661784,8568.497185 2471.852769,8576.526112 2493.363056,8566.247566 2495.872413,8572.016516 2463.332213,8587.466792 2468.894756,8598.096131 2500.174655,8582.908357 2502.414385,8588.398957 2471.946226,8603.500447 2478.678042,8615.931707 2510.136258,8600.467020 2513.654768,8607.881989 2504.451440,8629.043988 2515.928776,8675.490713 2509.843198,8688.947641 2511.228212,8708.288916 2503.542942,8717.034274 2496.536950,8713.959797 2490.128671,8719.789738 2490.200458,8740.137055 2513.293313,8742.629000 2521.684234,8754.221849 2517.909411,8777.487671 2528.077395,8799.231873 2544.411390,8792.567150 2590.462001,8889.140722 2595.506745,8911.135389 2611.367941,8941.988809 2680.084868,9135.496513 2667.435047,9142.649833 2666.482215,9152.692738 2675.515452,9156.006862 2668.087979,9163.487414 2648.780428,9172.573521 2644.394273,9188.588787 2650.191679,9213.016864 2680.808067,9257.614755 2689.254533,9251.280767 2701.342382,9250.763780 2730.883252,9282.481982 2735.677773,9279.067056 2757.373349,9314.013073 2749.192260,9319.282178 2745.228445,9346.055053 2747.130930,9372.591118 2758.728828,9385.326615 3114.045987,9929.756925 3133.292804,9976.085331 3141.604534,10030.071329 3145.675763,10144.019543 3151.299004,10164.029522 3149.269620,10188.099918 3152.120173,10213.617934 3140.461382,10252.099145 3136.130145,10300.916205 3120.957545,10373.220407 3102.085307,10518.964605 3045.020790,10843.803898 3030.377770,10933.460069 3012.572282,11029.211449 3000.145856,11128.831904 3009.683616,11193.023107 3017.897403,11269.576042 3010.273865,11317.861011 2919.719818,11602.300025 2912.237256,11654.381928 2929.793744,11837.951043 2947.694541,12019.234652 2972.934872,12092.245300 2997.305074,12151.832769 3035.551217,12255.167318 3064.440883,12327.768160 3094.899525,12408.854937 3131.022867,12485.730736 3173.682990,12565.647072 3199.313240,12618.590118 3239.653520,12704.859989 3282.351282,12785.443147 3349.283331,12913.448701 3410.292703,13038.416330 3451.094985,13085.060089 3509.353701,13156.259819 3573.196013,13227.156358 3661.525385,13329.093127 3698.206378,13384.760598 3822.069616,13576.053348 3961.922296,13785.850461 3990.342722,13832.445077 4052.452643,13928.327449 4084.552355,13962.957229 4145.113293,14021.271005 4264.492144,14115.360106 4344.762528,14174.152576 4476.495586,14289.955120 4548.156317,14348.598532 4564.071237,14342.924797 4570.497498,14343.290790 4572.393923,14349.413652 4561.452340,14357.990436 4620.964793,14407.179962 4656.832885,14437.529222 4738.925473,14509.808343 4752.215109,14518.445736 4769.441612,14526.763645 4782.256830,14538.263409 4794.571802,14594.574440 4788.652268,14596.740920 4802.318849,14606.223343 4808.236626,14604.567494 4819.134173,14584.213224 4822.171174,14585.233818 4803.766752,14619.904210 4771.453262,14678.903734 4761.089089,14708.806388 4748.115220,14770.747435 4749.688602,14829.130695 4739.453096,14883.177555 4717.094887,14958.007565 4704.893773,15028.809604 4707.078524,15078.902846 4697.361205,15100.171574 4713.384174,15116.766276 4757.984379,15165.761655 4797.085678,15229.657583 4813.857358,15305.898461 4787.797497,15433.299000 4781.706844,15564.176080 4780.217818,15655.961649 4812.490369,15951.481242 4866.814519,15992.573913 4897.120298,16029.476861 4871.885240,16089.355206 4904.251428,16314.498009 4942.821984,16632.352483 4958.659365,16611.160707 4986.570507,16556.020738 4985.618567,16621.222354 4970.024411,16677.026582 4968.002171,16751.449106 4965.249319,16800.337727 4959.441335,16831.765635 4948.718939,16863.331961 4896.315576,16950.246250 4869.811353,17041.179774 4850.514959,17088.901372 4828.722173,17133.450756 4807.614169,17199.904056 4798.590844,17243.487309 4769.788021,17325.865843 4752.664281,17387.903853 4748.648020,17419.171586 4755.387159,17438.287766 4755.851466,17497.322406 4744.539197,17573.378273 4735.130486,17601.563750 4717.725399,17664.666554 4722.168240,17688.659111 4707.836399,17714.818537 4661.428250,17801.455361 4650.067219,17860.083262 4636.388902,17919.979837 4620.255538,17979.479535 4613.199493,18033.448847 4634.642871,18090.013143 4627.556620,18110.813695 4617.932417,18120.849084 4593.231064,18128.435300 4572.879599,18140.299062 4557.141467,18155.930605 4539.875197,18179.072098 4537.110556,18182.781394 4509.615240,18257.406125 4502.511319,18313.351306 4505.702144,18355.588923 4515.057828,18399.545906 4524.537963,18436.665343 4523.466133,18451.481030 4524.585054,18462.518858 4528.414313,18478.328079 4544.583491,18509.420475 4552.101884,18532.568687 4555.367828,18560.076066 4555.704388,18562.874571 4556.011976,18626.204700 4554.506582,18666.683564 4544.201245,18668.757580 4540.328410,18685.617348 4542.145826,18736.919546 4540.140752,18782.869328 4525.645903,18813.080304 4519.381907,18840.588554 4518.789908,18860.767489 4521.071834,18867.369028 4515.079490,18872.110812 4514.093119,18876.714219 4506.512542,18931.492258 4503.416805,18963.151837 4503.949377,18980.293027 4506.508855,18997.108090 4515.487721,19032.483052 4526.043071,19053.521372 4562.695452,19119.628395 4577.130209,19146.507852 4584.643361,19151.173546 4588.333730,19155.593090 4588.788106,19160.956249 4593.813073,19160.140849 4600.383788,19161.473152 4604.317830,19163.740012 4609.085726,19168.995794 4610.492237,19174.839533 4609.511239,19182.806441 4604.344127,19190.648050 4603.677278,19193.132316 4654.190717,19285.473567 4663.171514,19305.174633 4673.335531,19312.080722 4709.953811,19389.832979 4735.392910,19468.590514 4748.514285,19540.823062 4767.094122,19616.104878 4778.067688,19669.703229 4793.288349,19730.098710 4795.847622,19736.890013 4807.768408,19740.771864 4809.418166,19737.169832 4825.070166,19743.284687 4823.069129,19748.406295 4842.689846,19756.399769 4847.403251,19747.924019 4851.719302,19749.437489 4847.710364,19759.214441 4863.897880,19766.652203 4879.820884,19772.468392 4894.295886,19774.771808 4909.187194,19773.835301 4918.088313,19779.594006 4882.788365,19849.228551 4905.301672,19872.440077 4937.953801,19804.605882 4945.176227,19839.364820 4965.495113,19852.800360 5025.986107,19881.250203 5083.189348,19910.910176 5094.468995,19965.498066 5109.937631,20028.892293 5115.695618,20052.501255 5112.174214,20055.519466 5113.626333,20060.220104 5109.336938,20063.235642 5109.831080,20074.016104 5114.164416,20072.921134 5114.873119,20077.830095 5110.002297,20080.588291 5100.831068,20101.647603 5104.106636,20111.050169 5111.657770,20126.239975 5111.754004,20134.954329 5104.978686,20144.177579 5105.113064,20154.057636 5100.101903,20168.049219 5095.755913,20180.067203 5101.491406,20195.572599 5101.607335,20208.327663 5108.673541,20224.603645 5116.548349,20243.746423 5116.789056,20269.123379 5113.591231,20283.454294 5113.699541,20293.545175 5105.589057,20300.887761 5107.884020,20308.310999 5115.779974,20321.359588 5115.081713,20330.415297 5110.102437,20335.282241 5166.173711,20347.233402 5214.202776,20445.864165 5272.797007,20640.564206 5361.692568,20681.493786 5428.135696,20735.532817 5493.788861,20876.665585 5566.802171,21021.355101 5598.985249,21154.866220 5628.666836,21265.367999 5645.359134,21393.063076 5711.432703,21425.312809 5747.545611,21484.963598 5799.059111,21574.730345 5850.894452,21663.810385 6056.005260,21844.713013 6106.596871,21924.032910 6236.928109,22026.932117 6312.052840,22094.520505 6359.847196,22132.304233 6448.664288,22201.931121 6579.427865,22285.633831 6663.176129,22353.712770 6702.639252,22405.299468 6733.292033,22436.839131 6766.699893,22480.699848 6778.652035,22492.855090 6790.428903,22504.487968 7014.614874,22346.305952 7001.226062,22334.822098 7001.239060,22313.308945 6977.925776,22300.200605 6970.483174,22284.687277 6965.973728,22265.443974 6949.755899,22243.292954 6920.143290,22213.399190 6892.975954,22192.905869 6867.892598,22170.111459 6828.124793,22141.434649 6767.510374,22100.769621 6694.647056,22016.012134 6638.909865,21947.348032 6584.031151,21895.016673 6516.395301,21842.328013 6446.929301,21805.263068 6419.228700,21772.947317 6399.173506,21749.562414 6357.585708,21719.072110 6329.024407,21698.131783 6272.403645,21652.701069 6266.810552,21647.740887 6213.562312,21600.502400 6184.547587,21569.414954 6139.175933,21520.784727 6084.260412,21465.115723 6067.151697,21447.770082 5988.708030,21359.758186 5943.212748,21288.483340 5898.337556,21201.725554 5860.723132,21080.692972 5818.965625,20902.665969 5745.260990,20765.919580 5737.510389,20651.110892 5730.076657,20546.760203 5713.431984,20448.137943 5700.026732,20408.949184 5692.431505,20278.633533 5695.437059,20178.827015 5698.675455,20053.956036 5729.636092,19669.517207 5743.747892,19522.883436 5581.517526,19042.214187 5932.757344,18980.749347 6020.893314,19332.901856 6022.253708,19552.511129 6023.084250,19687.309482 6023.554573,19762.840106 6024.077685,19847.129356 6116.297755,19978.417146 6185.245343,20007.717470 6292.049346,20035.635468 6355.721217,19995.527854 6406.752712,20008.013929 6439.036578,20035.117856 6451.349953,19972.965883 6444.374594,19944.145174 6425.520164,19918.777687 6428.772218,19890.371868 6428.620144,19719.831687 6403.505566,19622.109393 6431.122669,19550.389136 6450.341471,19481.169163 6470.910830,19418.925414 6469.954979,19332.014802 6571.123876,19274.307732 6575.633535,19259.893465 6566.737526,19236.860152 6564.364390,19225.750757 6424.878600,19220.177007 6423.976300,19224.558466 6420.628253,19228.387042 6413.865838,19231.104161 6405.928460,19231.985380 6397.550236,19228.779951 6393.053247,19219.039330 6381.413202,19219.163295 6381.028557,19222.791806 6376.031626,19222.817951 6373.996944,19206.781163 6384.749782,19206.920359 6385.942941,19213.018983 6392.096470,19212.930469 6392.219385,19207.014266 6590.210403,19209.461309 6596.814384,19197.075088 6598.633991,19188.878400 6603.446009,19179.482765 6604.948592,19167.988013 6608.123119,19151.726138 6599.030810,19149.894333 6599.164260,19138.871867 6488.640862,19139.120512 6479.086341,19141.327799 6469.161947,19154.634405 6454.499697,19170.976344 6396.280256,19181.364384 6391.425326,19174.863849 6393.639751,19169.432621 6441.025898,19160.137144 6447.317116,19154.731964 6454.162036,19131.823075 6459.289403,19114.646940 6558.486884,19104.898425 6567.709910,19091.866874 6578.260432,19073.634011 6582.347586,19031.866168 6624.301481,19028.757132 6626.677357,19013.935408 6589.097808,18982.093458 6583.971518,18895.689257 6635.760221,18899.365691 6664.437969,18310.703921 6688.423452,18086.026591 6656.668996,17904.214016 6584.333746,17843.171455 6549.584100,17788.495117 6517.798875,17662.064218 6503.229142,17597.138638 6493.934150,17514.227212 6473.120189,17397.572073 6484.198913,17327.956225 6527.001568,17215.863698 6551.490874,17134.108724 6569.418628,17062.031654 6566.178558,16997.169887 6592.725936,16964.465192 6610.701911,16943.706596 6613.447148,16913.578511 6603.368932,16894.415026 6615.907400,16871.427403 6674.522944,16813.620566 6713.432899,16746.561113 6725.392800,16702.091834 6756.401322,16650.810682 6759.937288,16603.424121 6792.682425,16525.730077 6803.861429,16448.422408 6838.483270,16431.855537 6876.176126,16404.654749 6885.980547,16379.370695 6886.364074,16357.981231 6866.007551,16328.000489 6913.140801,16253.313237 6926.714343,16229.552955 7002.489329,16110.148710 7028.631338,16006.522240 7063.918317,15959.576517 7081.526483,15941.071111 7130.909631,15889.138829 7143.931636,15875.445133 7217.622427,15782.177211 7247.821958,15725.633390 7283.284356,15691.110953 7375.460506,15545.275243 7408.457555,15515.450731 7419.643300,15518.645690 7464.677424,15523.667471 7496.730807,15517.839289 7506.875402,15519.443035 7928.208669,14585.997002 7919.216705,14572.097672 7901.740888,14570.220905 7893.740412,14566.404772 7892.849499,14558.697523 7889.228639,14549.292467 7882.180321,14537.276672 7890.183227,14531.701694 7887.788112,14526.397482 7888.374166,14521.160257 7886.891008,14518.101879 7881.345954,14519.268287 7879.926271,14526.045286 7871.565611,14525.824385 7861.089608,14517.824934 7866.415210,14514.426446 7873.943648,14511.436064 7883.769861,14510.519249 7892.847218,14513.251660 7896.921934,14503.509933 7895.961759,14498.433260 7904.129399,14493.957890 7899.410041,14484.681804 7891.032571,14484.427515 7891.056048,14478.333377 7884.041201,14475.153787 7879.794385,14461.594703 7877.343075,14448.941683 7874.207090,14440.815072 7881.936763,14433.840358 7895.082980,14432.769835 7896.488884,14420.808808 7896.173906,14412.681957 7895.866475,14404.788248 7887.450691,14414.457750 7887.045017,14401.368583 7875.443126,14413.734374 7875.047858,14397.936702 7866.906577,14395.540936 7857.558283,14410.501867 7856.013831,14399.217719 7858.997103,14389.971300 7854.926355,14387.702216 7845.829085,14396.692007 7839.247427,14401.639763 7832.190026,14409.505154 7827.439293,14408.354632 7824.748271,14400.906889 7821.389413,14391.414072 7815.762024,14381.013393 7809.645408,14381.433919 7802.594073,14387.723076 7798.066121,14387.938801 7791.689382,14396.717092 7785.802526,14396.694496 7778.289095,14404.558187 7764.904178,14410.601069 7759.710335,14406.063209 7759.046744,14402.908095 7746.762692,14414.816345 7740.190834,14415.024272 7740.009496,14402.835124 7740.499309,14394.034229 7736.225390,14387.468502 7738.293711,14378.906768 7731.259699,14380.689217 7725.620343,14375.583545 7719.983755,14367.547330 7711.344410,14376.095014 7706.841520,14369.761541 7698.680072,14370.407445 7688.023611,14371.942964 7691.463194,14362.587219 7694.652028,14356.960316 7686.276575,14356.140137 7685.868800,14343.506102 7684.557762,14330.746507 7681.676767,14315.505476 7675.845269,14298.776788 7671.136702,14286.570338 7667.356842,14267.829193 7666.051357,14253.604346 7662.485728,14238.471714 7656.872672,14224.230411 7651.485700,14212.709621 7646.744468,14206.819300 7637.042182,14197.302350 7529.011081,14222.366560 7506.776645,14238.910715 7486.796174,14244.673722 7481.504668,14230.189563 7467.000746,14232.843053 7433.211507,14258.423869 7408.333785,14254.877334 7375.474730,14269.083831 7348.736242,14275.165768 7342.688732,14263.986827 7340.031770,14258.559703 7331.757477,14266.698482 7319.517028,14280.605703 7293.214750,14291.984466 7248.816414,14300.031587 7230.028784,14334.561396 7215.234680,14342.586968 7181.319769,14390.747045 7120.626175,14442.525550 7073.226518,14458.432781 7060.613295,14445.764226 7035.304438,14440.185918 7028.068121,14455.488790 7019.742948,14484.186011 7014.498468,14493.102398 7006.614019,14485.213746 6985.561319,14493.416222 6975.826939,14481.058267 6982.210087,14463.487642 6994.970059,14450.436553 6990.953205,14440.453239 6973.691370,14444.473873 6958.310964,14421.849052 6945.444575,14445.334358 6913.612252,14442.840334 6887.091255,14431.585624 6860.884163,14442.677651 6838.678200,14445.303768 6820.245869,14430.183009 6804.336035,14420.377723 6789.401394,14409.510427 6774.027849,14423.651150 6782.142086,14440.276561 6733.467755,14467.625938 6673.114621,14457.889908 6652.581840,14435.102421 6544.408112,14254.708684 6542.672825,14205.116040 6553.583715,14182.588623 6559.704347,14162.696665 6551.201477,14148.179193 6554.211074,14126.743932 6556.350146,14084.758314 6579.333786,14047.755725 6677.229820,13962.708314 6684.068480,13938.356680 6711.357423,13904.611749 6741.796069,13889.460920 6744.023620,13851.260984 6766.941087,13834.872493 6756.591093,13810.490651 6767.714832,13792.404568 6778.753924,13783.509461 6784.176124,13758.586549 6802.993475,13754.615630 6825.387108,13701.926511 6997.140935,13562.975618 6997.195268,13548.411872 7001.099264,13534.439719 7005.181263,13533.888821 7012.015629,13524.656453 7018.374893,13520.506378 7024.732880,13516.700422 7024.063016,13512.857123 7021.353612,13510.027461 7016.379166,13507.522361 7018.444393,13501.890982 7023.897322,13498.414663 7032.050801,13497.878985 7040.219489,13495.533980 7043.401430,13491.716173 7038.207743,13486.845818 7030.751532,13481.622898 7032.165862,13467.075334 7037.167783,13462.231970 7044.194028,13462.713346 7045.795530,13456.858230 7042.199574,13449.396311 7045.390854,13445.345427 7052.631303,13447.281787 7056.965868,13440.193626 7057.217552,13433.878343 7060.668150,13419.216292 7060.918178,13413.345026 7054.367408,13407.681446 7062.146262,13387.629601 7067.406260,13374.783712 7071.089628,13358.879274 7079.274911,13349.885133 7082.705750,13342.782506 7082.291387,13331.613784 7084.153560,13319.321324 7083.279683,13309.050029 7085.590412,13298.790651 7096.034197,13291.259155 7101.276116,13283.275272 7083.422863,13270.786910 7082.101703,13262.656352 7075.307541,13261.054652 7068.281105,13260.573248 7057.438960,13252.640205 7054.078585,13243.147760 7059.564192,13228.726431 7065.961302,13214.530526 7073.256425,13204.167680 7080.302333,13197.200683 7090.506722,13194.985454 7099.149654,13185.648931 7101.459194,13175.722572 7109.860113,13170.114945 7114.635867,13164.826764 7112.397329,13158.047034 7117.880579,13146.556288 7126.083914,13132.822326 7140.219595,13109.508624 7142.972266,13100.827204 7154.270249,13108.884185 7166.705239,13117.844596 7179.576464,13127.605908 7189.808122,13118.164449 7190.515256,13112.072895 7184.437444,13101.893051 7184.021966,13091.057339 7181.343394,13079.991118 7175.945593,13068.681578 7169.420841,13058.278058 7165.820612,13049.683811 7161.563183,13038.378561 7166.353846,13029.149769 7174.314051,13021.731169 7184.773514,13012.401564 7194.776835,13003.070261 7204.070460,13002.761062 7208.121832,13008.193363 7215.366817,13011.273251 7223.747219,13011.193756 7231.920721,13007.727819 7235.369304,12993.742981 7232.246919,12979.400408 7228.219764,12967.529858 7221.016730,12953.282949 7216.287421,12946.160808 7206.343820,12939.574100 7202.749019,12931.779097 7200.974356,12920.705168 7195.586600,12906.698218 7189.735877,12896.741239 7181.196320,12878.426546 7178.526164,12865.095848 7179.266787,12847.837257 7182.739044,12829.789682 7183.484570,12808.978931 7184.903799,12795.485980 7187.431086,12786.126598 7195.367802,12785.03525