<?xml version="1.0" encoding="UTF-8"?>

<!-- generated on Thu Apr 22 10:58:25 2021 by Eclipse SUMO netconvert Version 1.9.0
<configuration xmlns:xsi="http://www.w3.org/2001/XMLSchema-instance" xsi:noNamespaceSchemaLocation="http://sumo.dlr.de/xsd/netconvertConfiguration.xsd">

    <input>
        <type-files value="/usr/share/sumo/data/typemap/osmNetconvert.typ.xml"/>
        <osm-files value="osm_bbox.osm.xml"/>
    </input>

    <output>
        <output-file value="osm.net.xml"/>
        <output.street-names value="true"/>
        <output.original-names value="true"/>
    </output>

    <projection>
        <proj.utm value="true"/>
    </projection>

    <processing>
        <geometry.remove value="true"/>
        <roundabouts.guess value="true"/>
    </processing>

    <tls_building>
        <tls.discard-simple value="true"/>
        <tls.join value="true"/>
        <tls.guess-signals value="true"/>
        <tls.default-type value="actuated"/>
    </tls_building>

    <ramp_guessing>
        <ramps.guess value="true"/>
    </ramp_guessing>

    <junctions>
        <junctions.join value="true"/>
        <junctions.corner-detail value="5"/>
    </junctions>

    <report>
        <verbose value="true"/>
        <aggregate-warnings value="5"/>
    </report>

</configuration>
-->

<net version="1.9" junctionCornerDetail="5" limitTurnSpeed="5.50" xmlns:xsi="http://www.w3.org/2001/XMLSchema-instance" xsi:noNamespaceSchemaLocation="http://sumo.dlr.de/xsd/net_file.xsd">

    <location netOffset="-390301.73,-5819272.32" convBoundary="0.00,0.00,2319.98,2098.04" origBoundary="13.372213,52.512896,13.417649,52.531772" projParameter="+proj=utm +zone=33 +ellps=WGS84 +datum=WGS84 +units=m +no_defs"/>

    <type id="highway.bridleway" priority="1" numLanes="1" speed="2.78" allow="pedestrian" oneway="1" width="2.00"/>
    <type id="highway.bus_guideway" priority="1" numLanes="1" speed="27.78" allow="bus" oneway="1"/>
    <type id="highway.cycleway" priority="1" numLanes="1" speed="8.33" allow="bicycle" oneway="0" width="1.00"/>
    <type id="highway.footway" priority="1" numLanes="1" speed="2.78" allow="pedestrian" oneway="1" width="2.00"/>
    <type id="highway.ford" priority="1" numLanes="1" speed="2.78" allow="army" oneway="0"/>
    <type id="highway.living_street" priority="2" numLanes="1" speed="2.78" disallow="tram rail_urban rail rail_electric rail_fast ship" oneway="0"/>
    <type id="highway.motorway" priority="14" numLanes="2" speed="39.44" allow="private emergency authority army vip passenger hov taxi bus coach delivery truck trailer motorcycle evehicle custom1 custom2" oneway="1"/>
    <type id="highway.motorway_link" priority="9" numLanes="1" speed="22.22" allow="private emergency authority army vip passenger hov taxi bus coach delivery truck trailer motorcycle evehicle custom1 custom2" oneway="1"/>
    <type id="highway.path" priority="1" numLanes="1" speed="2.78" allow="pedestrian bicycle" oneway="0" width="2.00"/>
    <type id="highway.pedestrian" priority="1" numLanes="1" speed="2.78" allow="pedestrian" oneway="1" width="2.00"/>
    <type id="highway.primary" priority="12" numLanes="2" speed="27.78" disallow="tram rail_urban rail rail_electric rail_fast ship" oneway="0"/>
    <type id="highway.primary_link" priority="7" numLanes="1" speed="22.22" disallow="tram rail_urban rail rail_electric rail_fast ship" oneway="0"/>
    <type id="highway.raceway" priority="15" numLanes="2" speed="83.33" allow="vip" oneway="0"/>
    <type id="highway.residential" priority="3" numLanes="1" speed="13.89" disallow="tram rail_urban rail rail_electric rail_fast ship" oneway="0"/>
    <type id="highway.secondary" priority="11" numLanes="1" speed="27.78" disallow="tram rail_urban rail rail_electric rail_fast ship" oneway="0"/>
    <type id="highway.secondary_link" priority="6" numLanes="1" speed="22.22" disallow="tram rail_urban rail rail_electric rail_fast ship" oneway="0"/>
    <type id="highway.service" priority="1" numLanes="1" speed="5.56" allow="pedestrian delivery bicycle" oneway="0"/>
    <type id="highway.stairs" priority="1" numLanes="1" speed="1.39" allow="pedestrian" oneway="1" width="2.00"/>
    <type id="highway.step" priority="1" numLanes="1" speed="1.39" allow="pedestrian" oneway="1" width="2.00"/>
    <type id="highway.steps" priority="1" numLanes="1" speed="1.39" allow="pedestrian" oneway="1" width="2.00"/>
    <type id="highway.tertiary" priority="10" numLanes="1" speed="22.22" disallow="tram rail_urban rail rail_electric rail_fast ship" oneway="0"/>
    <type id="highway.tertiary_link" priority="5" numLanes="1" speed="22.22" disallow="tram rail_urban rail rail_electric rail_fast ship" oneway="0"/>
    <type id="highway.track" priority="1" numLanes="1" speed="5.56" allow="pedestrian motorcycle moped bicycle" oneway="0"/>
    <type id="highway.trunk" priority="13" numLanes="2" speed="27.78" disallow="pedestrian bicycle tram rail_urban rail rail_electric rail_fast ship" oneway="0"/>
    <type id="highway.trunk_link" priority="8" numLanes="1" speed="22.22" disallow="pedestrian bicycle tram rail_urban rail rail_electric rail_fast ship" oneway="0"/>
    <type id="highway.unclassified" priority="4" numLanes="1" speed="13.89" disallow="tram rail_urban rail rail_electric rail_fast ship" oneway="0"/>
    <type id="highway.unsurfaced" priority="1" numLanes="1" speed="8.33" disallow="tram rail_urban rail rail_electric rail_fast ship" oneway="0"/>
    <type id="railway.highspeed" priority="21" numLanes="1" speed="69.44" allow="rail_fast" oneway="1"/>
    <type id="railway.light_rail" priority="19" numLanes="1" speed="27.78" allow="rail_urban" oneway="1"/>
    <type id="railway.preserved" priority="16" numLanes="1" speed="27.78" allow="rail" oneway="1"/>
    <type id="railway.rail" priority="20" numLanes="1" speed="44.44" allow="rail" oneway="1"/>
    <type id="railway.subway" priority="18" numLanes="1" speed="27.78" allow="rail_urban" oneway="1"/>
    <type id="railway.tram" priority="17" numLanes="1" speed="13.89" allow="tram" oneway="1"/>

    <edge id=":1157325174_0" function="internal">
        <lane id=":1157325174_0_0" index="0" disallow="tram rail_urban rail rail_electric rail_fast ship" speed="13.89" length="4.99" shape="1408.49,893.95 1405.45,897.88"/>
        <lane id=":1157325174_0_1" index="1" disallow="tram rail_urban rail rail_electric rail_fast ship" speed="13.89" length="4.99" shape="1405.98,891.97 1402.91,895.93"/>
    </edge>
    <edge id=":1166137172_0" function="internal">
        <lane id=":1166137172_0_0" index="0" allow="pedestrian delivery bicycle" speed="5.02" length="5.03" shape="2065.21,1224.18 2066.18,1225.16 2067.22,1225.60 2068.35,1225.48 2069.55,1224.80"/>
    </edge>
    <edge id=":1261425426_0" function="internal">
        <lane id=":1261425426_0_0" index="0" disallow="tram rail_urban rail rail_electric rail_fast ship" speed="13.89" length="5.00" shape="2033.91,1300.82 2036.99,1304.76"/>
        <lane id=":1261425426_0_1" index="1" disallow="tram rail_urban rail rail_electric rail_fast ship" speed="13.89" length="5.00" shape="2031.39,1302.79 2034.47,1306.73"/>
    </edge>
    <edge id=":1266415965_0" function="internal">
        <lane id=":1266415965_0_0" index="0" allow="pedestrian delivery bicycle" speed="5.02" length="5.03" shape="2005.25,1193.85 2006.23,1194.82 2007.28,1195.24 2008.41,1195.11 2009.60,1194.42"/>
    </edge>
    <edge id=":1266415965_1" function="internal">
        <lane id=":1266415965_1_0" index="0" allow="pedestrian delivery bicycle" speed="3.65" length="4.67" shape="2005.25,1193.85 2005.33,1195.29 2004.93,1196.09 2004.05,1196.25 2002.69,1195.77"/>
    </edge>
    <edge id=":1266415965_2" function="internal">
        <lane id=":1266415965_2_0" index="0" allow="pedestrian delivery bicycle" speed="5.14" length="5.10" shape="2002.25,1200.26 2003.17,1199.26 2003.55,1198.18 2003.39,1197.02 2002.69,1195.77"/>
    </edge>
    <edge id=":1266415965_3" function="internal">
        <lane id=":1266415965_3_0" index="0" disallow="tram rail_urban rail rail_electric rail_fast ship" speed="13.89" length="9.35" shape="2002.25,1200.26 2009.60,1194.42"/>
        <lane id=":1266415965_3_1" index="1" disallow="tram rail_urban rail rail_electric rail_fast ship" speed="13.89" length="9.35" shape="2004.26,1202.75 2011.58,1196.93"/>
        <lane id=":1266415965_3_2" index="2" disallow="tram rail_urban rail rail_electric rail_fast ship" speed="13.89" length="9.35" shape="2006.26,1205.24 2013.56,1199.45"/>
    </edge>
    <edge id=":1273546310_0" function="internal">
        <lane id=":1273546310_0_0" index="0" allow="pedestrian delivery bicycle" speed="5.14" length="5.07" shape="2049.70,1197.80 2048.77,1198.79 2048.38,1199.86 2048.53,1201.02 2049.20,1202.26"/>
    </edge>
    <edge id=":1273546310_1" function="internal">
        <lane id=":1273546310_1_0" index="0" disallow="tram rail_urban rail rail_electric rail_fast ship" speed="13.89" length="6.23" shape="2049.70,1197.80 2044.85,1201.69"/>
        <lane id=":1273546310_1_1" index="1" disallow="tram rail_urban rail rail_electric rail_fast ship" speed="13.89" length="6.23" shape="2047.70,1195.30 2042.84,1199.20"/>
        <lane id=":1273546310_1_2" index="2" disallow="tram rail_urban rail rail_electric rail_fast ship" speed="13.89" length="6.23" shape="2045.71,1192.80 2040.83,1196.70"/>
    </edge>
    <edge id=":1275468904_0" function="internal">
        <lane id=":1275468904_0_0" index="0" disallow="tram rail_urban rail rail_electric rail_fast ship" speed="13.89" length="4.96" shape="1619.33,1141.85 1617.38,1137.29"/>
    </edge>
    <edge id=":1275468904_1" function="internal">
        <lane id=":1275468904_1_0" index="0" disallow="tram rail_urban rail rail_electric rail_fast ship" speed="3.65" length="2.34" shape="1619.33,1141.85 1619.60,1140.43 1620.18,1139.75"/>
    </edge>
    <edge id=":1275468904_4" function="internal">
        <lane id=":1275468904_4_0" index="0" disallow="tram rail_urban rail rail_electric rail_fast ship" speed="3.65" length="2.34" shape="1620.18,1139.75 1621.07,1139.81 1622.28,1140.60"/>
    </edge>
    <edge id=":1275468904_2" function="internal">
        <lane id=":1275468904_2_0" index="0" disallow="tram rail_urban rail rail_electric rail_fast ship" speed="13.89" length="4.99" shape="1620.32,1136.02 1622.28,1140.60"/>
    </edge>
    <edge id=":1275468904_3" function="internal">
        <lane id=":1275468904_3_0" index="0" disallow="tram rail_urban rail rail_electric rail_fast ship" speed="3.65" length="2.34" shape="1620.32,1136.02 1620.06,1137.44 1619.49,1138.12"/>
    </edge>
    <edge id=":1275468904_5" function="internal">
        <lane id=":1275468904_5_0" index="0" disallow="tram rail_urban rail rail_electric rail_fast ship" speed="3.65" length="2.34" shape="1619.49,1138.12 1618.59,1138.07 1617.38,1137.29"/>
    </edge>
    <edge id=":1275468905_0" function="internal">
        <lane id=":1275468905_0_0" index="0" disallow="tram rail_urban rail rail_electric rail_fast ship" speed="13.89" length="5.56" shape="2070.14,1146.37 2074.49,1142.89"/>
        <lane id=":1275468905_0_1" index="1" disallow="tram rail_urban rail rail_electric rail_fast ship" speed="13.89" length="5.56" shape="2072.14,1148.87 2076.49,1145.40"/>
        <lane id=":1275468905_0_2" index="2" disallow="tram rail_urban rail rail_electric rail_fast ship" speed="13.89" length="5.56" shape="2074.14,1151.37 2078.48,1147.90"/>
    </edge>
    <edge id=":1275468907_0" function="internal">
        <lane id=":1275468907_0_0" index="0" disallow="tram rail_urban rail rail_electric rail_fast ship" speed="13.89" length="6.84" shape="2091.79,1164.25 2086.44,1168.50"/>
        <lane id=":1275468907_0_1" index="1" disallow="tram rail_urban rail rail_electric rail_fast ship" speed="13.89" length="6.84" shape="2089.80,1161.74 2084.45,1166.00"/>
        <lane id=":1275468907_0_2" index="2" disallow="tram rail_urban rail rail_electric rail_fast ship" speed="13.89" length="6.84" shape="2087.81,1159.23 2082.45,1163.50"/>
    </edge>
    <edge id=":1275468908_0" function="internal">
        <lane id=":1275468908_0_0" index="0" disallow="tram rail_urban rail rail_electric rail_fast ship" speed="13.89" length="7.41" shape="2109.78,1150.01 2103.97,1154.61"/>
        <lane id=":1275468908_0_1" index="1" disallow="tram rail_urban rail rail_electric rail_fast ship" speed="13.89" length="7.41" shape="2107.79,1147.50 2101.99,1152.10"/>
        <lane id=":1275468908_0_2" index="2" disallow="tram rail_urban rail rail_electric rail_fast ship" speed="13.89" length="7.41" shape="2105.81,1144.98 2100.00,1149.59"/>
    </edge>
    <edge id=":1275468908_3" function="internal">
        <lane id=":1275468908_3_0" index="0" allow="pedestrian delivery bicycle" speed="9.78" length="9.12" shape="2102.19,1143.02 2102.23,1144.77 2102.35,1147.70 2102.34,1150.56 2101.99,1152.10"/>
        <lane id=":1275468908_3_1" index="1" allow="pedestrian delivery bicycle" speed="8.66" length="7.06" shape="2102.19,1143.02 2101.87,1145.39 2101.40,1147.27 2100.78,1148.67 2100.00,1149.59"/>
    </edge>
    <edge id=":1275468911_0" function="internal">
        <lane id=":1275468911_0_0" index="0" allow="pedestrian delivery bicycle" speed="3.65" length="4.67" shape="2030.39,1197.50 2028.95,1197.62 2028.14,1197.24 2027.96,1196.36 2028.41,1194.99"/>
    </edge>
    <edge id=":1275468917_0" function="internal">
        <lane id=":1275468917_0_0" index="0" allow="pedestrian delivery bicycle" speed="7.75" length="4.13" shape="2065.41,1171.54 2064.20,1171.57 2063.37,1171.74 2062.61,1172.14 2061.64,1172.88"/>
    </edge>
    <edge id=":1275468917_1" function="internal">
        <lane id=":1275468917_1_0" index="0" allow="pedestrian delivery bicycle" speed="7.47" length="4.05" shape="2059.66,1170.36 2060.58,1169.60 2061.12,1168.97 2061.45,1168.20 2061.73,1167.04"/>
    </edge>
    <edge id=":1275468917_2" function="internal">
        <lane id=":1275468917_2_0" index="0" allow="pedestrian delivery bicycle" speed="3.65" length="4.67" shape="2059.66,1170.36 2061.10,1170.25 2061.91,1170.63 2062.09,1171.51 2061.64,1172.88"/>
    </edge>
    <edge id=":1275477851_0" function="internal">
        <lane id=":1275477851_0_0" index="0" allow="pedestrian delivery bicycle" speed="3.65" length="4.67" shape="1966.93,1372.66 1966.64,1374.07 1966.05,1374.74 1965.15,1374.67 1963.96,1373.86"/>
    </edge>
    <edge id=":1275477853_0" function="internal">
        <lane id=":1275477853_0_0" index="0" allow="pedestrian delivery bicycle" speed="3.65" length="4.67" shape="1863.34,1289.18 1861.92,1288.97 1861.21,1288.42 1861.23,1287.53 1861.96,1286.29"/>
    </edge>
    <edge id=":1472911019_0" function="internal">
        <lane id=":1472911019_0_0" index="0" disallow="tram rail_urban rail rail_electric rail_fast ship" speed="13.89" length="4.99" shape="1273.59,661.67 1269.32,659.07"/>
        <lane id=":1472911019_0_1" index="1" disallow="tram rail_urban rail rail_electric rail_fast ship" speed="13.89" length="4.99" shape="1275.25,658.94 1270.99,656.34"/>
    </edge>
    <edge id=":1473258655_0" function="internal">
        <lane id=":1473258655_0_0" index="0" allow="pedestrian bicycle" speed="2.78" length="2.92" width="2.00" shape="1001.37,776.13 1001.02,775.30 1001.08,774.75 1001.57,774.47 1002.47,774.46"/>
    </edge>
    <edge id=":1473258664_0" function="internal">
        <lane id=":1473258664_0_0" index="0" allow="pedestrian delivery bicycle" speed="4.17" length="5.07" shape="1111.99,836.05 1110.73,835.43 1109.60,835.38 1108.59,835.91 1107.71,837.00"/>
    </edge>
    <edge id=":1473258664_1" function="internal">
        <lane id=":1473258664_1_0" index="0" disallow="tram rail_urban rail rail_electric rail_fast ship" speed="2.78" length="9.45" shape="1111.99,836.05 1104.10,830.84"/>
    </edge>
    <edge id=":1473258664_2" function="internal">
        <lane id=":1473258664_2_0" index="0" disallow="tram rail_urban rail rail_electric rail_fast ship" speed="2.78" length="2.34" shape="1111.99,836.05 1111.45,834.71 1111.57,833.82"/>
    </edge>
    <edge id=":1473258664_9" function="internal">
        <lane id=":1473258664_9_0" index="0" disallow="tram rail_urban rail rail_electric rail_fast ship" speed="2.78" length="2.34" shape="1111.57,833.82 1112.35,833.39 1113.79,833.40"/>
    </edge>
    <edge id=":1473258664_3" function="internal">
        <lane id=":1473258664_3_0" index="0" disallow="tram rail_urban rail rail_electric rail_fast ship" speed="2.78" length="9.54" shape="1105.82,828.14 1113.79,833.40"/>
    </edge>
    <edge id=":1473258664_4" function="internal">
        <lane id=":1473258664_4_0" index="0" allow="pedestrian delivery bicycle" speed="4.17" length="5.04" shape="1105.82,828.14 1107.89,829.94 1108.89,832.01"/>
    </edge>
    <edge id=":1473258664_5" function="internal">
        <lane id=":1473258664_5_0" index="0" disallow="tram rail_urban rail rail_electric rail_fast ship" speed="2.78" length="2.34" shape="1105.82,828.14 1106.40,829.46 1106.31,830.35"/>
    </edge>
    <edge id=":1473258664_10" function="internal">
        <lane id=":1473258664_10_0" index="0" allow="pedestrian delivery bicycle" speed="4.17" length="5.21" shape="1108.89,832.01 1108.83,834.36 1107.71,837.00"/>
    </edge>
    <edge id=":1473258664_11" function="internal">
        <lane id=":1473258664_11_0" index="0" disallow="tram rail_urban rail rail_electric rail_fast ship" speed="2.78" length="2.34" shape="1106.31,830.35 1105.54,830.81 1104.10,830.84"/>
    </edge>
    <edge id=":1473258664_6" function="internal">
        <lane id=":1473258664_6_0" index="0" allow="pedestrian delivery bicycle" speed="4.17" length="5.20" shape="1104.96,835.36 1105.55,834.00 1105.60,832.79 1105.12,831.74 1104.10,830.84"/>
    </edge>
    <edge id=":1473258664_7" function="internal">
        <lane id=":1473258664_7_0" index="0" allow="pedestrian delivery bicycle" speed="4.17" length="10.46" shape="1104.96,835.36 1106.78,833.11 1108.86,832.03 1111.19,832.13 1113.79,833.40"/>
    </edge>
    <edge id=":1473258664_8" function="internal">
        <lane id=":1473258664_8_0" index="0" allow="pedestrian delivery bicycle" speed="3.65" length="4.67" shape="1104.96,835.36 1106.26,834.74 1107.15,834.80 1107.64,835.55 1107.71,837.00"/>
    </edge>
    <edge id=":1473258678_0" function="internal">
        <lane id=":1473258678_0_0" index="0" allow="pedestrian bicycle" speed="4.17" length="4.73" shape="1105.67,844.94 1104.48,844.34 1103.39,844.23 1102.40,844.61 1101.51,845.48"/>
    </edge>
    <edge id=":1473258678_1" function="internal">
        <lane id=":1473258678_1_0" index="0" allow="pedestrian bicycle" speed="2.78" length="9.37" width="2.00" shape="1105.67,844.94 1097.88,839.73"/>
    </edge>
    <edge id=":1473258678_2" function="internal">
        <lane id=":1473258678_2_0" index="0" allow="pedestrian bicycle" speed="4.17" length="8.74" shape="1105.67,844.94 1103.61,843.17 1102.54,841.37 1102.48,839.53 1103.41,837.66"/>
    </edge>
    <edge id=":1473258678_3" function="internal">
        <lane id=":1473258678_3_0" index="0" allow="pedestrian bicycle" speed="2.78" length="2.92" width="2.00" shape="1105.67,844.94 1105.33,844.11 1105.41,843.55 1105.90,843.28 1106.80,843.29"/>
    </edge>
    <edge id=":1473258678_4" function="internal">
        <lane id=":1473258678_4_0" index="0" allow="pedestrian bicycle" speed="4.17" length="4.37" width="2.00" shape="1105.96,839.60 1105.43,840.60 1105.39,841.55 1105.85,842.44 1106.80,843.29"/>
    </edge>
    <edge id=":1473258678_5" function="internal">
        <lane id=":1473258678_5_0" index="0" allow="pedestrian delivery bicycle" speed="5.56" length="7.37" shape="1105.96,839.60 1101.51,845.48"/>
    </edge>
    <edge id=":1473258678_6" function="internal">
        <lane id=":1473258678_6_0" index="0" allow="pedestrian bicycle" speed="4.17" length="2.06" width="2.00" shape="1105.96,839.60 1104.42,840.96"/>
    </edge>
    <edge id=":1473258678_7" function="internal">
        <lane id=":1473258678_7_0" index="0" allow="pedestrian delivery bicycle" speed="3.65" length="2.34" shape="1105.96,839.60 1104.60,840.07 1103.72,839.91"/>
    </edge>
    <edge id=":1473258678_16" function="internal">
        <lane id=":1473258678_16_0" index="0" allow="pedestrian bicycle" speed="4.17" length="6.96" width="2.00" shape="1104.42,840.96 1102.56,841.44 1100.38,841.03 1097.88,839.73"/>
    </edge>
    <edge id=":1473258678_17" function="internal">
        <lane id=":1473258678_17_0" index="0" allow="pedestrian delivery bicycle" speed="3.65" length="2.34" shape="1103.72,839.91 1103.33,839.10 1103.41,837.66"/>
    </edge>
    <edge id=":1473258678_8" function="internal">
        <lane id=":1473258678_8_0" index="0" allow="pedestrian bicycle" speed="4.17" length="4.99" shape="1098.98,838.05 1100.29,838.71 1101.47,838.86 1102.51,838.51 1103.41,837.66"/>
    </edge>
    <edge id=":1473258678_9" function="internal">
        <lane id=":1473258678_9_0" index="0" allow="pedestrian bicycle" speed="2.78" length="9.41" width="2.00" shape="1098.98,838.05 1106.80,843.29"/>
    </edge>
    <edge id=":1473258678_10" function="internal">
        <lane id=":1473258678_10_0" index="0" allow="pedestrian bicycle" speed="4.17" length="9.01" shape="1098.98,838.05 1101.18,839.86 1102.33,841.70 1102.44,843.57 1101.51,845.48"/>
    </edge>
    <edge id=":1473258678_11" function="internal">
        <lane id=":1473258678_11_0" index="0" allow="pedestrian bicycle" speed="2.78" length="2.92" width="2.00" shape="1098.98,838.05 1099.33,838.88 1099.27,839.44 1098.78,839.72 1097.88,839.73"/>
    </edge>
    <edge id=":1473258678_12" function="internal">
        <lane id=":1473258678_12_0" index="0" allow="pedestrian bicycle" speed="4.17" length="4.58" width="2.00" shape="1098.96,843.55 1099.48,842.53 1099.48,841.55 1098.94,840.62 1097.88,839.73"/>
    </edge>
    <edge id=":1473258678_13" function="internal">
        <lane id=":1473258678_13_0" index="0" allow="pedestrian delivery bicycle" speed="5.56" length="7.38" shape="1098.96,843.55 1103.41,837.66"/>
    </edge>
    <edge id=":1473258678_14" function="internal">
        <lane id=":1473258678_14_0" index="0" allow="pedestrian bicycle" speed="4.17" length="2.25" width="2.00" shape="1098.96,843.55 1100.50,842.14 1100.66,842.10"/>
    </edge>
    <edge id=":1473258678_15" function="internal">
        <lane id=":1473258678_15_0" index="0" allow="pedestrian delivery bicycle" speed="3.65" length="2.34" shape="1098.96,843.55 1100.32,843.07 1101.20,843.24"/>
    </edge>
    <edge id=":1473258678_18" function="internal">
        <lane id=":1473258678_18_0" index="0" allow="pedestrian bicycle" speed="4.17" length="6.56" width="2.00" shape="1100.66,842.10 1102.32,841.63 1104.42,842.01 1106.80,843.29"/>
    </edge>
    <edge id=":1473258678_19" function="internal">
        <lane id=":1473258678_19_0" index="0" allow="pedestrian delivery bicycle" speed="3.65" length="2.34" shape="1101.20,843.24 1101.60,844.04 1101.51,845.48"/>
    </edge>
    <edge id=":1473258716_0" function="internal">
        <lane id=":1473258716_0_0" index="0" allow="pedestrian bicycle" speed="2.78" length="7.41" width="2.00" shape="1119.04,851.66 1120.55,853.04 1121.22,854.56 1121.06,856.21 1120.06,858.00"/>
    </edge>
    <edge id=":1473258716_1" function="internal">
        <lane id=":1473258716_1_0" index="0" allow="pedestrian bicycle" speed="2.78" length="2.92" width="2.00" shape="1119.04,851.66 1119.38,852.50 1119.30,853.05 1118.81,853.32 1117.91,853.31"/>
    </edge>
    <edge id=":1473258716_2" function="internal">
        <lane id=":1473258716_2_0" index="0" allow="pedestrian bicycle" speed="2.78" length="4.06" width="2.00" shape="1118.47,856.78 1119.02,855.80 1119.11,854.90 1118.74,854.07 1117.91,853.31"/>
    </edge>
    <edge id=":1473258716_3" function="internal">
        <lane id=":1473258716_3_0" index="0" allow="pedestrian bicycle" speed="2.78" length="2.92" width="2.00" shape="1118.47,856.78 1119.32,856.49 1119.87,856.60 1120.11,857.10 1120.06,858.00"/>
    </edge>
    <edge id=":1473258772_0" function="internal">
        <lane id=":1473258772_0_0" index="0" allow="pedestrian bicycle" speed="2.78" length="2.92" width="2.00" shape="1034.81,938.68 1034.53,937.82 1034.64,937.27 1035.14,937.03 1036.04,937.10"/>
    </edge>
    <edge id=":1474045662_0" function="internal">
        <lane id=":1474045662_0_0" index="0" allow="pedestrian bicycle" speed="4.17" length="4.54" shape="1070.54,891.48 1069.36,890.78 1068.30,890.57 1067.36,890.84 1066.55,891.59"/>
    </edge>
    <edge id=":1474045662_1" function="internal">
        <lane id=":1474045662_1_0" index="0" allow="pedestrian bicycle" speed="4.17" length="8.78" shape="1070.54,891.48 1068.51,889.59 1067.44,887.73 1067.35,885.89 1068.23,884.08"/>
    </edge>
    <edge id=":1474045662_2" function="internal">
        <lane id=":1474045662_2_0" index="0" allow="pedestrian bicycle" speed="2.78" length="2.92" width="2.00" shape="1070.54,891.48 1070.24,890.63 1070.35,890.08 1070.85,889.83 1071.75,889.88"/>
    </edge>
    <edge id=":1474045662_3" function="internal">
        <lane id=":1474045662_3_0" index="0" allow="pedestrian bicycle" speed="4.17" length="4.53" width="2.00" shape="1070.78,886.01 1070.27,887.01 1070.26,887.98 1070.75,888.94 1071.75,889.88"/>
    </edge>
    <edge id=":1474045662_4" function="internal">
        <lane id=":1474045662_4_0" index="0" allow="pedestrian delivery bicycle" speed="5.56" length="7.00" shape="1070.78,886.01 1066.55,891.59"/>
    </edge>
    <edge id=":1474045662_5" function="internal">
        <lane id=":1474045662_5_0" index="0" allow="pedestrian delivery bicycle" speed="3.65" length="2.34" shape="1070.78,886.01 1069.42,886.49 1068.54,886.32"/>
    </edge>
    <edge id=":1474045662_9" function="internal">
        <lane id=":1474045662_9_0" index="0" allow="pedestrian delivery bicycle" speed="3.65" length="2.34" shape="1068.54,886.32 1068.14,885.52 1068.23,884.08"/>
    </edge>
    <edge id=":1474045662_6" function="internal">
        <lane id=":1474045662_6_0" index="0" allow="pedestrian delivery bicycle" speed="5.56" length="7.00" shape="1064.00,889.66 1068.23,884.08"/>
    </edge>
    <edge id=":1474045662_7" function="internal">
        <lane id=":1474045662_7_0" index="0" allow="pedestrian bicycle" speed="4.17" length="3.84" width="2.00" shape="1064.00,889.66 1065.50,888.34 1067.29,887.93"/>
    </edge>
    <edge id=":1474045662_8" function="internal">
        <lane id=":1474045662_8_0" index="0" allow="pedestrian delivery bicycle" speed="3.65" length="2.34" shape="1064.00,889.66 1065.36,889.19 1066.24,889.35"/>
    </edge>
    <edge id=":1474045662_10" function="internal">
        <lane id=":1474045662_10_0" index="0" allow="pedestrian bicycle" speed="4.17" length="4.92" width="2.00" shape="1067.29,887.93 1069.37,888.44 1071.75,889.88"/>
    </edge>
    <edge id=":1474045662_11" function="internal">
        <lane id=":1474045662_11_0" index="0" allow="pedestrian delivery bicycle" speed="3.65" length="2.34" shape="1066.24,889.35 1066.64,890.15 1066.55,891.59"/>
    </edge>
    <edge id=":1474045664_0" function="internal">
        <lane id=":1474045664_0_0" index="0" allow="pedestrian bicycle" speed="2.78" length="7.00" width="2.00" shape="1088.40,899.31 1084.14,904.86"/>
    </edge>
    <edge id=":1474045664_1" function="internal">
        <lane id=":1474045664_1_0" index="0" allow="pedestrian bicycle" speed="2.78" length="7.25" width="2.00" shape="1088.40,899.31 1086.99,900.69 1085.47,901.29 1083.83,901.11 1082.09,900.15"/>
    </edge>
    <edge id=":1474045664_2" function="internal">
        <lane id=":1474045664_2_0" index="0" allow="pedestrian bicycle" speed="2.78" length="2.92" width="2.00" shape="1088.40,899.31 1087.55,899.60 1087.00,899.49 1086.76,898.99 1086.81,898.09"/>
    </edge>
    <edge id=":1474045664_3" function="internal">
        <lane id=":1474045664_3_0" index="0" allow="pedestrian bicycle" speed="2.78" length="4.03" width="2.00" shape="1083.31,898.56 1084.28,899.09 1085.18,899.19 1086.03,898.86 1086.81,898.09"/>
    </edge>
    <edge id=":1474045664_4" function="internal">
        <lane id=":1474045664_4_0" index="0" allow="pedestrian bicycle" speed="2.78" length="7.27" width="2.00" shape="1083.31,898.56 1084.71,899.97 1085.32,901.49 1085.13,903.12 1084.14,904.86"/>
    </edge>
    <edge id=":1474045664_5" function="internal">
        <lane id=":1474045664_5_0" index="0" allow="pedestrian bicycle" speed="2.78" length="2.92" width="2.00" shape="1083.31,898.56 1083.60,899.41 1083.49,899.96 1082.99,900.21 1082.09,900.15"/>
    </edge>
    <edge id=":1474045664_6" function="internal">
        <lane id=":1474045664_6_0" index="0" allow="pedestrian bicycle" speed="2.78" length="4.04" width="2.00" shape="1082.56,903.65 1083.10,902.68 1083.21,901.77 1082.87,900.93 1082.09,900.15"/>
    </edge>
    <edge id=":1474045664_7" function="internal">
        <lane id=":1474045664_7_0" index="0" allow="pedestrian bicycle" speed="2.78" length="7.00" width="2.00" shape="1082.56,903.65 1086.81,898.09"/>
    </edge>
    <edge id=":1474045664_8" function="internal">
        <lane id=":1474045664_8_0" index="0" allow="pedestrian bicycle" speed="2.78" length="2.92" width="2.00" shape="1082.56,903.65 1083.41,903.36 1083.96,903.46 1084.20,903.96 1084.14,904.86"/>
    </edge>
    <edge id=":1474045668_0" function="internal">
        <lane id=":1474045668_0_0" index="0" allow="pedestrian delivery bicycle" speed="3.65" length="4.67" shape="1030.95,938.61 1029.60,939.10 1028.72,938.94 1028.31,938.14 1028.39,936.70"/>
    </edge>
    <edge id=":1615477649_0" function="internal">
        <lane id=":1615477649_0_0" index="0" allow="tram" speed="11.11" length="0.10" shape="1851.46,1115.60 1851.46,1115.60"/>
    </edge>
    <edge id=":1615531695_0" function="internal">
        <lane id=":1615531695_0_0" index="0" allow="tram" speed="4.17" length="12.68" shape="1842.35,1107.37 1832.71,1099.12"/>
    </edge>
    <edge id=":1615531695_1" function="internal">