<?xml version="1.0" encoding="UTF-8"?>

<!-- generated on 2021-05-04 16:49:42 by Eclipse SUMO duarouter Version 1.9.1
<configuration xmlns:xsi="http://www.w3.org/2001/XMLSchema-instance" xsi:noNamespaceSchemaLocation="http://sumo.dlr.de/xsd/duarouterConfiguration.xsd">

    <input>
        <net-file value="osm.net.xml"/>
        <route-files value="osm.passenger.trips.xml"/>
    </input>

    <output>
        <output-file value="osm.passenger.trips.xml.tmp"/>
        <write-trips value="true"/>
    </output>

    <time>
        <begin value="0"/>
        <end value="36000"/>
    </time>

    <report>
        <no-warnings value="true"/>
        <ignore-errors value="true"/>
        <no-step-log value="true"/>
    </report>

</configuration>
-->

<routes xmlns:xsi="http://www.w3.org/2001/XMLSchema-instance" xsi:noNamespaceSchemaLocation="http://sumo.dlr.de/xsd/routes_file.xsd">
    <vType id="veh_passenger" vClass="passenger"/>
    <trip id="veh0" type="veh_passenger" depart="0.00" departLane="best" departSpeed="max" from="144461454#0" to="-107176910#1"/>
    <trip id="veh3" type="veh_passenger" depart="3.29" departLane="best" from="54570758#2" to="-121252931#2"/>
    <trip id="veh4" type="veh_passenger" depart="4.39" departLane="best" departSpeed="max" from="-168740957" to="121252924"/>
    <trip id="veh6" type="veh_passenger" depart="6.59" departLane="best" departSpeed="max" from="-168740957" to="158377998#4"/>
    <trip id="veh7" type="veh_passenger" depart="7.68" departLane="best" from="354704864" to="-104656477#4"/>
    <trip id="veh10" type="veh_passenger" depart="10.98" departLane="best" from="607937698" to="-59837331#3"/>
    <trip id="veh11" type="veh_passenger" depart="12.07" departLane="best" departSpeed="max" from="-121252924" to="-121252933#0"/>
    <trip id="veh13" type="veh_passenger" depart="14.27" departLane="best" from="353879510#4" to="353879487#0"/>
    <trip id="veh14" type="veh_passenger" depart="15.37" departLane="best" from="121252909" to="659800333#0"/>
    <trip id="veh17" type="veh_passenger" depart="18.66" departLane="best" from="54570756#0" to="150500617"/>
    <trip id="veh18" type="veh_passenger" depart="19.76" departLane="best" from="168739668#0" to="-109898722#8"/>
    <trip id="veh19" type="veh_passenger" depart="20.85" departLane="best" from="-121252921#0" to="-320357214"/>
    <trip id="veh20" type="veh_passenger" depart="21.95" departLane="best" from="-121252928#6" to="-358984585"/>
    <trip id="veh21" type="veh_passenger" depart="23.05" departLane="best" from="144460526#1" to="104656487"/>
    <trip id="veh23" type="veh_passenger" depart="25.24" departLane="best" departSpeed="max" from="-320358931" to="607937697"/>
    <trip id="veh28" type="veh_passenger" depart="30.73" departLane="best" from="121252923" to="235161049#2"/>
    <trip id="veh29" type="veh_passenger" depart="31.83" departLane="best" from="43979804#1" to="355336294"/>
    <trip id="veh30" type="veh_passenger" depart="32.93" departLane="best" from="-175900204#1" to="-109898710#1"/>
    <trip id="veh31" type="veh_passenger" depart="34.02" departLane="best" from="-355336301#0" to="-355336285"/>
    <trip id="veh32" type="veh_passenger" depart="35.12" departLane="best" from="-168735568" to="607937697"/>
    <trip id="veh33" type="veh_passenger" depart="36.22" departLane="best" from="54570756#9" to="-54570758#6"/>
    <trip id="veh34" type="veh_passenger" depart="37.32" departLane="best" from="54570761" to="121252907"/>
    <trip id="veh35" type="veh_passenger" depart="38.41" departLane="best" departSpeed="max" from="-320358931" to="-353879496#1"/>
    <trip id="veh36" type="veh_passenger" depart="39.51" departLane="best" from="121252926" to="-353879510#4"/>
    <trip id="veh37" type="veh_passenger" depart="40.61" departLane="best" departSpeed="max" from="121252933#0" to="54613274"/>
    <trip id="veh39" type="veh_passenger" depart="42.80" departLane="best" from="909437171" to="121252924"/>
    <trip id="veh42" type="veh_passenger" depart="46.10" departLane="best" departSpeed="max" from="-121252912#2" to="104682747#4"/>
    <trip id="veh43" type="veh_passenger" depart="47.19" departLane="best" from="909437170" to="121252931#0"/>
    <trip id="veh44" type="veh_passenger" depart="48.29" departLane="best" from="659390939#0" to="54570758#4"/>
    <trip id="veh45" type="veh_passenger" depart="49.39" departLane="best" from="-104657720#6" to="320358931"/>
    <trip id="veh47" type="veh_passenger" depart="51.58" departLane="best" from="-121252931#0" to="109898710#0"/>
    <trip id="veh49" type="veh_passenger" depart="53.78" departLane="best" from="54570756#8" to="-353879510#4"/>
    <trip id="veh50" type="veh_passenger" depart="54.88" departLane="best" from="109816271#0" to="-168735566#3"/>
    <trip id="veh51" type="veh_passenger" depart="55.97" departLane="best" from="54570760#9" to="54570760#1"/>
    <trip id="veh54" type="veh_passenger" depart="59.27" departLane="best" departSpeed="max" from="320357214" to="121252932#3"/>
    <trip id="veh55" type="veh_passenger" depart="60.36" departLane="best" from="353879488" to="121252931#0"/>
    <trip id="veh56" type="veh_passenger" depart="61.46" departLane="best" from="-104656477#0" to="-54613274"/>
    <trip id="veh57" type="veh_passenger" depart="62.56" departLane="best" from="-104682748" to="59837331#0"/>
    <trip id="veh58" type="veh_passenger" depart="63.66" departLane="best" from="54570757#0" to="54568692#3"/>
    <trip id="veh59" type="veh_passenger" depart="64.75" departLane="best" departSpeed="max" from="-355336294" to="-121252908#1"/>
    <trip id="veh61" type="veh_passenger" depart="66.95" departLane="best" from="-121252922#3" to="121252917"/>
    <trip id="veh62" type="veh_passenger" depart="68.05" departLane="best" departSpeed="max" from="-121252917" to="354414388"/>
    <trip id="veh66" type="veh_passenger" depart="72.44" departLane="best" from="121252913#0" to="353879487#0"/>
    <trip id="veh68" type="veh_passenger" depart="74.63" departLane="best" from="908604578" to="168735566#0"/>
    <trip id="veh69" type="veh_passenger" depart="75.73" departLane="best" from="104682748" to="121252928#4"/>
    <trip id="veh71" type="veh_passenger" depart="77.92" departLane="best" from="-358984589" to="158377998#3"/>
    <trip id="veh74" type="veh_passenger" depart="81.22" departLane="best" from="-175900204#1" to="54613283"/>
    <trip id="veh75" type="veh_passenger" depart="82.32" departLane="best" from="54570755" to="-121252922#3"/>
    <trip id="veh78" type="veh_passenger" depart="85.61" departLane="best" from="54613278" to="144460524#0"/>
    <trip id="veh79" type="veh_passenger" depart="86.71" departLane="best" from="105463039#5" to="355336301#1"/>
    <trip id="veh80" type="veh_passenger" depart="87.80" departLane="best" from="353879510#4" to="-175900201#1"/>
    <trip id="veh81" type="veh_passenger" depart="88.90" departLane="best" from="-121252928#1" to="109816271#0"/>
    <trip id="veh82" type="veh_passenger" depart="90.00" departLane="best" from="104656477#3" to="121252910"/>
    <trip id="veh83" type="veh_passenger" depart="91.10" departLane="best" departSpeed="max" from="235161321" to="175900204#0"/>
    <trip id="veh85" type="veh_passenger" depart="93.29" departLane="best" from="54570756#0" to="-353879496#1"/>
    <trip id="veh88" type="veh_passenger" depart="96.58" departLane="best" from="105463032#0" to="54570758#4"/>
    <trip id="veh89" type="veh_passenger" depart="97.68" departLane="best" from="121252921#0" to="-121252906#1"/>
    <trip id="veh90" type="veh_passenger" depart="98.78" departLane="best" from="909437171" to="54570756#10"/>
    <trip id="veh91" type="veh_passenger" depart="99.88" departLane="best" from="659390935" to="59837330#2"/>
    <trip id="veh92" type="veh_passenger" depart="100.97" departLane="best" from="54568688#0" to="-168729296#1"/>
    <trip id="veh95" type="veh_passenger" depart="104.27" departLane="best" departSpeed="max" from="-57932004" to="821878654"/>
    <trip id="veh96" type="veh_passenger" depart="105.36" departLane="best" departSpeed="max" from="-320358931" to="355336301#1"/>
    <trip id="veh97" type="veh_passenger" depart="106.46" departLane="best" from="105463035#0" to="107176906#0"/>
    <trip id="veh98" type="veh_passenger" depart="107.56" departLane="best" from="121252922#3" to="320358931"/>
    <trip id="veh99" type="veh_passenger" depart="108.66" departLane="best" from="-144460526#4" to="-54570757#5"/>
    <trip id="veh100" type="veh_passenger" depart="109.75" departLane="best" from="121252915" to="353879509#0"/>
    <trip id="veh101" type="veh_passenger" depart="110.85" departLane="best" departSpeed="max" from="-121252910" to="158377998#2"/>
    <trip id="veh102" type="veh_passenger" depart="111.95" departLane="best" from="109898710#0" to="54570757#2"/>
    <trip id="veh104" type="veh_passenger" depart="114.14" departLane="best" from="-121252921#0" to="-168965412"/>
    <trip id="veh107" type="veh_passenger" depart="117.44" departLane="best" departSpeed="max" from="54570758#0" to="-353879496#1"/>
    <trip id="veh108" type="veh_passenger" depart="118.53" departLane="best" departSpeed="max" from="135931622" to="160364474#0"/>
    <trip id="veh109" type="veh_passenger" depart="119.63" departLane="best" from="104656477#0" to="158377998#2"/>
    <trip id="veh110" type="veh_passenger" depart="120.73" departLane="best" from="121252905#0" to="607937697"/>
    <trip id="veh114" type="veh_passenger" depart="125.12" departLane="best" departSpeed="max" from="-355336301#1" to="353879510#2"/>
    <trip id="veh115" type="veh_passenger" depart="126.22" departLane="best" departSpeed="max" from="-121252917" to="121252906#2"/>
    <trip id="veh116" type="veh_passenger" depart="127.31" departLane="best" from="909437171" to="909437170"/>
    <trip id="veh118" type="veh_passenger" depart="129.51" departLane="best" departSpeed="max" from="-320358931" to="607937697"/>
    <trip id="veh122" type="veh_passenger" depart="133.90" departLane="best" from="158377998#3" to="-104656487"/>
    <trip id="veh123" type="veh_passenger" depart="135.00" departLane="best" departSpeed="max" from="355367889" to="-54570757#7"/>
    <trip id="veh124" type="veh_passenger" depart="136.09" departLane="best" from="158377998#6" to="607937697"/>
    <trip id="veh125" type="veh_passenger" depart="137.19" departLane="best" from="-135997658#1" to="-135931624#4"/>
    <trip id="veh128" type="veh_passenger" depart="140.48" departLane="best" from="175903534" to="-235161321"/>
    <trip id="veh129" type="veh_passenger" depart="141.58" departLane="best" from="144460526#0" to="-354704864"/>
    <trip id="veh130" type="veh_passenger" depart="142.68" departLane="best" from="106116325" to="54613283"/>
    <trip id="veh131" type="veh_passenger" depart="143.78" departLane="best" from="43979804#4" to="-121252932#3"/>
    <trip id="veh132" type="veh_passenger" depart="144.87" departLane="best" from="-104656477#2" to="355336285"/>
    <trip id="veh133" type="veh_passenger" depart="145.97" departLane="best" from="144460526#2" to="-353879510#3"/>
    <trip id="veh135" type="veh_passenger" depart="148.17" departLane="best" from="-121252918#1" to="54570762#0"/>
    <trip id="veh137" type="veh_passenger" depart="150.36" departLane="best" from="43967726#6" to="158377998#0"/>
    <trip id="veh138" type="veh_passenger" depart="151.46" departLane="best" departSpeed="max" from="-136551335#3" to="-136551335#0"/>
    <trip id="veh139" type="veh_passenger" depart="152.56" departLane="best" departSpeed="max" from="-355336294" to="54613274"/>
    <trip id="veh140" type="veh_passenger" depart="153.65" departLane="best" from="353879505" to="54570758#4"/>
    <trip id="veh143" type="veh_passenger" depart="156.95" departLane="best" from="353879488" to="54570762#1"/>
    <trip id="veh144" type="veh_passenger" depart="158.04" departLane="best" from="-144460526#4" to="607937697"/>
    <trip id="veh145" type="veh_passenger" depart="159.14" departLane="best" from="54570756#13" to="659800333#2"/>
    <trip id="veh146" type="veh_passenger" depart="160.24" departLane="best" from="354705279" to="54570762#0"/>
    <trip id="veh147" type="veh_passenger" depart="161.34" departLane="best" departSpeed="max" from="-358984588" to="607937697"/>
    <trip id="veh148" type="veh_passenger" depart="162.44" departLane="best" from="353879509#0" to="54570758#6"/>
    <trip id="veh149" type="veh_passenger" depart="163.53" departLane="best" from="354705279" to="-355336285"/>
    <trip id="veh151" type="veh_passenger" depart="165.73" departLane="best" from="54570756#6" to="54570758#2"/>
    <trip id="veh152" type="veh_passenger" depart="166.83" departLane="best" departSpeed="max" from="-168740957" to="43979804#1"/>
    <trip id="veh153" type="veh_passenger" depart="167.92" departLane="best" from="105463037" to="-54570758#1"/>
    <trip id="veh154" type="veh_passenger" depart="169.02" departLane="best" from="353879504#0" to="-283422196#0"/>
    <trip id="veh155" type="veh_passenger" depart="170.12" departLane="best" from="-107176910#0" to="-175903534"/>
    <trip id="veh157" type="veh_passenger" depart="172.31" departLane="best" from="659390934" to="-358984585"/>
    <trip id="veh158" type="veh_passenger" depart="173.41" departLane="best" from="659800333#0" to="121252932#1"/>
    <trip id="veh162" type="veh_passenger" depart="177.80" departLane="best" departSpeed="max" from="-121252929" to="109898710#0"/>
    <trip id="veh163" type="veh_passenger" depart="178.90" departLane="best" departSpeed="max" from="235161321" to="-54570758#6"/>
    <trip id="veh165" type="veh_passenger" depart="181.09" departLane="best" departSpeed="max" from="-57932004" to="144460526#2"/>
    <trip id="veh167" type="veh_passenger" depart="183.29" departLane="best" from="-104656477#1" to="59837330#2"/>
    <trip id="veh168" type="veh_passenger" depart="184.39" departLane="best" from="121252913#0" to="320358931"/>
    <trip id="veh170" type="veh_passenger" depart="186.58" departLane="best" from="-54570759#5" to="-121252922#2"/>
    <trip id="veh171" type="veh_passenger" depart="187.68" departLane="best" from="158377998#6" to="-54613284#1"/>
    <trip id="veh172" type="veh_passenger" depart="188.78" departLane="best" departSpeed="max" from="-355336294" to="54570756#7"/>
    <trip id="veh173" type="veh_passenger" depart="189.87" departLane="best" departSpeed="max" from="-355336294" to="105463038#14"/>
    <trip id="veh176" type="veh_passenger" depart="193.17" departLane="best" from="54613284#0" to="234801707"/>
    <trip id="veh179" type="veh_passenger" depart="196.46" departLane="best" from="-104656477#0" to="-43967726#3"/>
    <trip id="veh181" type="veh_passenger" depart="198.65" departLane="best" from="158377998#3" to="121252910"/>
    <trip id="veh183" type="veh_passenger" depart="200.85" departLane="best" from="105463464#0" to="54613278"/>
    <trip id="veh184" type="veh_passenger" depart="201.95" departLane="best" from="353879505" to="-168733117"/>
    <trip id="veh185" type="veh_passenger" depart="203.04" departLane="best" from="-121252922#2" to="121252928#2"/>
    <trip id="veh186" type="veh_passenger" depart="204.14" departLane="best" from="144460524#1" to="-59837330#3"/>
    <trip id="veh187" type="veh_passenger" depart="205.24" departLane="best" departSpeed="max" from="355367889" to="353879510#1"/>
    <trip id="veh188" type="veh_passenger" depart="206.34" departLane="best" departSpeed="max" from="160463928#0" to="-237153360#2"/>
    <trip id="veh191" type="veh_passenger" depart="209.63" departLane="best" from="54568688#0" to="-121252923"/>
    <trip id="veh193" type="veh_passenger" depart="211.82" departLane="best" from="107176909" to="-353879483#2"/>
    <trip id="veh194" type="veh_passenger" depart="212.92" departLane="best" from="158377998#3" to="-104656477#4"/>
    <trip id="veh196" type="veh_passenger" depart="215.12" departLane="best" departSpeed="max" from="-121252929" to="107176908"/>
    <trip id="veh198" type="veh_passenger" depart="217.31" departLane="best" from="109898722#8" to="-121252906#1"/>
    <trip id="veh200" type="veh_passenger" depart="219.51" departLane="best" from="105463036" to="358984588"/>
    <trip id="veh204" type="veh_passenger" depart="223.90" departLane="best" from="234802941#0" to="121252924"/>
    <trip id="veh206" type="veh_passenger" depart="226.09" departLane="best" from="54570758#6" to="353879506"/>
    <trip id="veh207" type="veh_passenger" depart="227.19" departLane="best" departSpeed="max" from="106116297" to="-353879510#0"/>
    <trip id="veh208" type="veh_passenger" depart="228.29" departLane="best" departSpeed="max" from="320357214" to="121252929"/>
    <trip id="veh210" type="veh_passenger" depart="230.48" departLane="best" from="-121252919#1" to="-358984589"/>
    <trip id="veh211" type="veh_passenger" depart="231.58" departLane="best" from="-353879482#1" to="-54613270#0"/>
    <trip id="veh212" type="veh_passenger" depart="232.68" departLane="best" from="121252914" to="-144460526#4"/>
    <trip id="veh214" type="veh_passenger" depart="234.87" departLane="best" from="168740955#1" to="-121252920"/>
    <trip id="veh218" type="veh_passenger" depart="239.26" departLane="best" from="54568692#1" to="354414389#0"/>
    <trip id="veh219" type="veh_passenger" depart="240.36" departLane="best" departSpeed="max" from="-57932004" to="-104656477#4"/>
    <trip id="veh220" type="veh_passenger" depart="241.46" departLane="best" from="-54570757#6" to="353879510#4"/>
    <trip id="veh222" type="veh_passenger" depart="243.65" departLane="best" from="104656477#0" to="353879509#0"/>
    <trip id="veh225" type="veh_passenger" depart="246.95" departLane="best" departSpeed="max" from="-358984588" to="234802941#0"/>
    <trip id="veh232" type="veh_passenger" depart="254.63" departLane="best" from="-121252906#1" to="104682747#2"/>
    <trip id="veh233" type="veh_passenger" depart="255.73" departLane="best" from="-168735572#0" to="-54613279"/>
    <trip id="veh234" type="veh_passenger" depart="256.82" departLane="best" departSpeed="max" from="320357214" to="104682747#2"/>
    <trip id="veh237" type="veh_passenger" depart="260.12" departLane="best" from="-104682747#4" to="121252932#3"/>
    <trip id="veh239" type="veh_passenger" depart="262.31" departLane="best" from="158377998#0" to="355336301#1"/>
    <trip id="veh240" type="veh_passenger" depart="263.41" departLane="best" from="158377998#2" to="354414388"/>
    <trip id="veh241" type="veh_passenger" depart="264.51" departLane="best" from="560954815#0" to="-235161321"/>
    <trip id="veh245" type="veh_passenger" depart="268.90" departLane="best" from="168735566#1" to="354414389#0"/>
    <trip id="veh247" type="veh_passenger" depart="271.09" departLane="best" departSpeed="max" from="355367889" to="659390939#0"/>
    <trip id="veh248" type="veh_passenger" depart="272.19" departLane="best" departSpeed="max" from="-121252929" to="-107176910#1"/>
    <trip id="veh249" type="veh_passenger" depart="273.29" departLane="best" from="607937698" to="105463033"/>
    <trip id="veh250" type="veh_passenger" depart="274.38" departLane="best" from="175900206" to="-121252928#3"/>
    <trip id="veh252" type="veh_passenger" depart="276.58" departLane="best" departSpeed="max" from="-121252929" to="355336294"/>
    <trip id="veh256" type="veh_passenger" depart="280.97" departLane="best" from="104657720#4" to="104656490"/>
    <trip id="veh258" type="veh_passenger" depart="283.16" departLane="best" departSpeed="max" from="-121252929" to="659390934"/>
    <trip id="veh259" type="veh_passenger" depart="284.26" departLane="best" from="168740955#1" to="109898710#1"/>
    <trip id="veh261" type="veh_passenger" depart="286.46" departLane="best" departSpeed="max" from="-320358931" to="43967726#6"/>
    <trip id="veh262" type="veh_passenger" depart="287.55" departLane="best" from="121252911" to="121252917"/>
    <trip id="veh263" type="veh_passenger" depart="288.65" departLane="best" from="104682747#4" to="353879488"/>
    <trip id="veh264" type="veh_passenger" depart="289.75" departLane="best" departSpeed="max" from="-320358931" to="54570757#0"/>
    <trip id="veh265" type="veh_passenger" depart="290.85" departLane="best" from="43967726#0" to="-121252931#2"/>
    <trip id="veh266" type="veh_passenger" depart="291.94" departLane="best" from="54570757#6" to="-353879483#2"/>
    <trip id="veh268" type="veh_passenger" depart="294.14" departLane="best" departSpeed="max" from="-57932004" to="-109816271#0"/>
    <trip id="veh269" type="veh_passenger" depart="295.24" departLane="best" from="54568688#0" to="-168735572#0"/>
    <trip id="veh270" type="veh_passenger" depart="296.33" departLane="best" from="-168735572#0" to="358984588"/>
    <trip id="veh271" type="veh_passenger" depart="297.43" departLane="best" from="-43967726#3" to="54570761"/>
    <trip id="veh272" type="veh_passenger" depart="298.53" departLane="best" from="168735572#0" to="-358984585"/>
    <trip id="veh274" type="veh_passenger" depart="300.72" departLane="best" from="-121252922#3" to="320358931"/>
    <trip id="veh275" type="veh_passenger" depart="301.82" departLane="best" from="106116325" to="354414388"/>
    <trip id="veh279" type="veh_passenger" depart="306.21" departLane="best" departSpeed="max" from="168733117" to="-54570758#1"/>
    <trip id="veh280" type="veh_passenger" depart="307.31" departLane="best" departSpeed="max" from="121252933#0" to="121252912#0"/>
    <trip id="veh281" type="veh_passenger" depart="308.41" departLane="best" departSpeed="max" from="121252908#0" to="107176909"/>
    <trip id="veh283" type="veh_passenger" depart="310.60" departLane="best" from="168735572#1" to="-355367889"/>
    <trip id="veh286" type="veh_passenger" depart="313.89" departLane="best" from="121252909" to="354414389#0"/>
    <trip id="veh287" type="veh_passenger" depart="314.99" departLane="best" departSpeed="max" from="-160463928#1" to="-237153360#0"/>
    <trip id="veh288" type="veh_passenger" depart="316.09" departLane="best" departSpeed="max" from="106116297" to="353879482#2"/>
    <trip id="veh289" type="veh_passenger" depart="317.19" departLane="best" from="659390942" to="121252929"/>
    <trip id="veh290" type="veh_passenger" depart="318.28" departLane="best" from="-353879505" to="-121252933#1"/>
    <trip id="veh293" type="veh_passenger" depart="321.58" departLane="best" departSpeed="max" from="121252908#0" to="-355367889"/>
    <trip id="veh296" type="veh_passenger" depart="324.87" departLane="best" from="54570756#2" to="121252918#0"/>
    <trip id="veh297" type="veh_passenger" depart="325.97" departLane="best" from="54570756#6" to="144460526#0"/>
    <trip id="veh298" type="veh_passenger" depart="327.07" departLane="best" from="105463039#16" to="109898710#4"/>
    <trip id="veh300" type="veh_passenger" depart="329.26" departLane="best" from="54613284#0" to="121252913#0"/>
    <trip id="veh301" type="veh_passenger" depart="330.36" departLane="best" departSpeed="max" from="358984585" to="105463035#0"/>
    <trip id="veh304" type="veh_passenger" depart="333.65" departLane="best" from="121252928#0" to="-54570758#1"/>
    <trip id="veh308" type="veh_passenger" depart="338.04" departLane="best" from="121252905#0" to="109898724"/>
    <trip id="veh309" type="veh_passenger" depart="339.14" departLane="best" from="105463032#0" to="54570758#3"/>
    <trip id="veh310" type="veh_passenger" depart="340.24" departLane="best" from="908601342" to="-54570758#1"/>
    <trip id="veh311" type="veh_passenger" depart="341.33" departLane="best" from="135997658#1" to="160364465"/>
    <trip id="veh316" type="veh_passenger" depart="346.82" departLane="best" from="-104656477#1" to="109898724"/>
    <trip id="veh319" type="veh_passenger" depart="350.11" departLane="best" departSpeed="max" from="168729296#0" to="57932004"/>
    <trip id="veh321" type="veh_passenger" depart="352.31" departLane="best" from="158377998#5" to="607937697"/>
    <trip id="veh323" type="veh_passenger" depart="354.50" departLane="best" from="152191051" to="54613284#1"/>
    <trip id="veh324" type="veh_passenger" depart="355.60" departLane="best" departSpeed="max" from="358984585" to="-121252922#3"/>
    <trip id="veh329" type="veh_passenger" depart="361.09" departLane="best" from="54613284#1" to="121252922#3"/>
    <trip id="veh330" type="veh_passenger" depart="362.19" departLane="best" from="107176909" to="-121252930#0"/>
    <trip id="veh331" type="veh_passenger" depart="363.28" departLane="best" from="-109898722#0" to="109816271#0"/>
    <trip id="veh332" type="veh_passenger" depart="364.38" departLane="best" departSpeed="max" from="-355336301#1" to="-353879496#1"/>
    <trip id="veh333" type="veh_passenger" depart="365.48" departLane="best" departSpeed="max" from="-121252924" to="659390935"/>
    <trip id="veh334" type="veh_passenger" depart="366.58" departLane="best" from="43967950#0" to="144460526#1"/>
    <trip id="veh335" type="veh_passenger" depart="367.67" departLane="best" from="560954816" to="909437171"/>
    <trip id="veh337" type="veh_passenger" depart="369.87" departLane="best" from="-109898722#0" to="354414388"/>
    <trip id="veh338" type="veh_passenger" depart="370.97" departLane="best" from="105463039#18" to="168735566#1"/>
    <trip id="veh339" type="veh_passenger" depart="372.06" departLane="best" from="54570762#0" to="-168735572#0"/>
    <trip id="veh341" type="veh_passenger" depart="374.26" departLane="best" from="107176906#0" to="-121252932#3"/>
    <trip id="veh342" type="veh_passenger" depart="375.36" departLane="best" from="-54570757#1" to="-59837330#2"/>
    <trip id="veh346" type="veh_passenger" depart="379.75" departLane="best" from="105463035#0" to="-54570758#6"/>
    <trip id="veh350" type="veh_passenger" depart="384.14" departLane="best" from="290044165" to="-235161321"/>
    <trip id="veh351" type="veh_passenger" depart="385.23" departLane="best" from="121252920" to="59837330#3"/>
    <trip id="veh353" type="veh_passenger" depart="387.43" departLane="best" from="-121252933#1" to="659800333#0"/>
    <trip id="veh356" type="veh_passenger" depart="390.72" departLane="best" from="908604577" to="560954812#3"/>
    <trip id="veh358" type="veh_passenger" depart="392.92" departLane="best" from="175903534" to="121252924"/>
    <trip id="veh359" type="veh_passenger" depart="394.01" departLane="best" from="-353879482#2" to="54570756#0"/>
    <trip id="veh360" type="veh_passenger" depart="395.11" departLane="best" from="659800333#0" to="-353879483#2"/>
    <trip id="veh361" type="veh_passenger" depart="396.21" departLane="best" from="121252921#1" to="104682748"/>
    <trip id="veh362" type="veh_passenger" depart="397.31" departLane="best" from="54570762#2" to="121252924"/>
    <trip id="veh363" type="veh_passenger" depart="398.40" departLane="best" from="54570757#2" to="54570758#6"/>
    <trip id="veh365" type="veh_passenger" depart="400.60" departLane="best" from="-909437170" to="607937697"/>
    <trip id="veh366" type="veh_passenger" depart="401.70" departLane="best" from="-353879505" to="-54570757#7"/>
    <trip id="veh367" type="veh_passenger" depart="402.79" departLane="best" departSpeed="max" from="121252933#0" to="909437171"/>
    <trip id="veh370" type="veh_passenger" depart="406.09" departLane="best" from="121252921#1" to="121252933#3"/>
    <trip id="veh371" type="veh_passenger" depart="407.19" departLane="best" from="105463035#0" to="-54613270#1"/>
    <trip id="veh372" type="veh_passenger" depart="408.28" departLane="best" from="121252931#1" to="-320357214"/>
    <trip id="veh373" type="veh_passenger" depart="409.38" departLane="best" from="353879486#0" to="-109898722#6"/>
    <trip id="veh374" type="veh_passenger" depart="410.48" departLane="best" departSpeed="max" from="237153360#0" to="237153360#4"/>
    <trip id="veh375" type="veh_passenger" depart="411.58" departLane="best" from="355336285" to="105463031#0"/>
    <trip id="veh376" type="veh_passenger" depart="412.67" departLane="best" from="158377998#6" to="544514391#0"/>
    <trip id="veh377" type="veh_passenger" depart="413.77" departLane="best" from="659800333#0" to="121252921#0"/>
    <trip id="veh378" type="veh_passenger" depart="414.87" departLane="best" from="-109898710#4" to="121252923"/>
    <trip id="veh379" type="veh_passenger" depart="415.97" departLane="best" from="121252933#2" to="54570760#0"/>
    <trip id="veh380" type="veh_passenger" depart="417.06" departLane="best" from="54570756#7" to="109898710#4"/>
    <trip id="veh381" type="veh_passenger" depart="418.16" departLane="best" from="234802941#4" to="105463038#3"/>
    <trip id="veh383" type="veh_passenger" depart="420.36" departLane="best" from="105463039#16" to="659390939#2"/>
    <trip id="veh385" type="veh_passenger" depart="422.55" departLane="best" from="158377998#0" to="54570757#0"/>
    <trip id="veh386" type="veh_passenger" depart="423.65" departLane="best" from="54568688#2" to="54570758#3"/>
    <trip id="veh387" type="veh_passenger" depart="424.75" departLane="best" departSpeed="max" from="-57932004" to="-54570759#5"/>
    <trip id="veh388" type="veh_passenger" depart="425.84" departLane="best" from="234801707" to="354414388"/>
    <trip id="veh389" type="veh_passenger" depart="426.94" departLane="best" from="54570756#6" to="-109898710#3"/>
    <trip id="veh393" type="veh_passenger" depart="431.33" departLane="best" departSpeed="max" from="168733117" to="54613281#0"/>
    <trip id="veh394" type="veh_passenger" depart="432.43" departLane="best" from="-109898722#8" to="358984588"/>
    <trip id="veh395" type="veh_passenger" depart="433.53" departLane="best" departSpeed="max" from="-354414388" to="104657720#4"/>
    <trip id="veh403" type="veh_passenger" depart="442.31" departLane="best" from="-104656490" to="43967726#0"/>
    <trip id="veh405" type="veh_passenger" depart="444.50" departLane="best" from="-544514391#1" to="158377998#3"/>