<?xml version="1.0" encoding="UTF-8"?>

<!-- generated on Thu Apr 22 11:02:43 2021 by Eclipse SUMO duarouter Version 1.9.0
<configuration xmlns:xsi="http://www.w3.org/2001/XMLSchema-instance" xsi:noNamespaceSchemaLocation="http://sumo.dlr.de/xsd/duarouterConfiguration.xsd">

    <input>
        <net-file value="osm.net.xml"/>
        <route-files value="osm.passenger.trips.xml"/>
    </input>

    <output>
        <output-file value="routes.rou.xml"/>
        <alternatives-output value="routes.rou.alt.xml"/>
    </output>

    <time>
        <begin value="0"/>
        <end value="3600"/>
    </time>

    <report>
        <no-warnings value="true"/>
        <ignore-errors value="true"/>
        <no-step-log value="true"/>
    </report>

</configuration>
-->

<routes xmlns:xsi="http://www.w3.org/2001/XMLSchema-instance" xsi:noNamespaceSchemaLocation="http://sumo.dlr.de/xsd/routes_file.xsd">
    <vType id="veh_passenger" vClass="passenger"/>
    <vehicle id="veh0" type="veh_passenger" depart="0.00" departLane="best">
        <route edges="30721660#3 30721660#4 4610362#0 4610362#1 4610362#2 4610362#3 4610362#4 4610362#5 30721662#0 30721662#1 30721662#2 30721662#3 831659093#0 831659093#1 23809670#1 23809670#2 23809670#3 28016312#0 28016312#1 156364556#1 202157002#1 202157002#2 -534588621#1 -534588621#0 606078071#0 606078071#3 -562707499 -751595928#1 -136571494#0"/>
    </vehicle>
    <vehicle id="veh1" type="veh_passenger" depart="12.69" departLane="best">
        <route edges="128396190#1 128396190#2 128396190#3 128396190#4 -194962375#2 -194962375#1 -194962375#0 -751595929#0 61583424#0 61583424#1 534588621#0 534588621#1 72157174#1 171826984#2 195401006 195401017#5 139877314#1 112128418#1"/>
    </vehicle>
    <vehicle id="veh3" type="veh_passenger" depart="38.08" departLane="best" departSpeed="max">
        <route edges="54048862#0 54048862#2 831694400 23013165#0 23013165#1 23013165#2 4611698#1 202156994#0 4773465#1 4773465#2 4773465#3 490365295#0 490365295#1 -28016312#3 -28016312#0 -23809670#3 -23809670#2 -23809670#1"/>
    </vehicle>
    <vehicle id="veh4" type="veh_passenger" depart="50.78" departLane="best">
        <route edges="23013165#2 4611698#1 202156994#0 4773465#1 4773465#2 4773465#3 490365295#0 490365295#1 -156364570#3 -156364570#1"/>
    </vehicle>
    <vehicle id="veh6" type="veh_passenger" depart="76.17" departLane="best">
        <route edges="-19002363#2 -19002363#1 4613292#0 4613308#3 756306892 100405009#1"/>
    </vehicle>
    <vehicle id="veh8" type="veh_passenger" depart="101.55" departLane="best">
        <route edges="4611698#1 202156994#0 -534588621#1 -534588621#0 606078071#0 606078071#3 328920970 751595929#0 751595929#1 194962375#1 194962375#2 -128396190#4 -128396190#3 -128396190#2 -128396190#1 -128396190#0"/>
    </vehicle>
    <vehicle id="veh10" type="veh_passenger" depart="126.94" departLane="best">
        <route edges="19002363#3 19002363#4 19002363#6 19002363#8 24241790#1 36892597#0 36892597#1 -36892597#1"/>
    </vehicle>
    <vehicle id="veh12" type="veh_passenger" depart="152.33" departLane="best" departSpeed="max">
        <route edges="-24241762#2 24241790#1 36892597#0 -36892597#0 -24241790#2"/>
    </vehicle>
    <vehicle id="veh13" type="veh_passenger" depart="165.03" departLane="best">
        <route edges="490365295#1 156364556#1 202157002#1 202157002#2 72157174#1 171826984#2 195401006 195401017#5 139877314#1 100405009#1 100405009#2 100405009#3 100405009#4 305093247#0 305093247#2"/>
    </vehicle>
    <vehicle id="veh15" type="veh_passenger" depart="190.41" departLane="best">
        <route edges="46140376#2 -84960597#1 -84960597#0 11103418 23809678#1 23809678#4 -19002363#10 -19002363#6 -19002363#4 -19002363#3 -19002363#2 -19002363#1 4613292#0 4613308#3 756306892 100405009#1 100405009#2 100405009#3 100405009#4 305093247#0 305093247#2"/>
    </vehicle>
    <vehicle id="veh16" type="veh_passenger" depart="203.11" departLane="best">
        <route edges="312357351#0 312357351#1 309479676 128396190#0 128396190#1 128396190#2 128396190#3 128396190#4 -194962375#2 -194962375#1 -194962375#0 -751595929#0 61583424#0 61583424#1 534588621#0 534588621#1 4773465#1 4773465#2 4773465#3 490365295#0 490365295#1 -156364570#3 -156364570#1 -156364570#0 -77348147 25294728 234463931#1 234463931#2 234463931#3 234463931#4 234463931#5 234463931#6 234463928#1 55741054 -19002363#2"/>
    </vehicle>
    <vehicle id="veh17" type="veh_passenger" depart="215.80" departLane="best">
        <route edges="-23813206#1 -23813206#0 -24241797#3 -24241797#2 4613308#3 756306892 112128418#1 112128418#2 112128418#3"/>
    </vehicle>
    <vehicle id="veh18" type="veh_passenger" depart="228.50" departLane="best">
        <route edges="-24241790#2 -19002363#10 -19002363#6 -19002363#4 -19002363#3 -55741054 -62363401 -234463928#0 -234463931#5 -234463931#4 -234463931#3 -234463931#2 -234463931#1 -234463931#0 77348147 156364570#0 156364570#1 156364570#2 156364556#1"/>
    </vehicle>
    <vehicle id="veh20" type="veh_passenger" depart="253.88" departLane="best">
        <route edges="112128419#1 112128419#2 415280722 195401013#2 195401013#3 24914992#1 171826985#1 171826985#3 24913519#1 24913519#2 541763975 202156995#0 202156995#1 4067932#1 339201219 541763974 61584187#1 61584187#2"/>
    </vehicle>
    <vehicle id="veh21" type="veh_passenger" depart="266.58" departLane="best">
        <route edges="30721662#3 831659093#0 831659093#1 23809670#1 23809670#2 23809670#3 28016312#0 28016312#1 156364556#1 202157002#1 202157002#2 72157174#1 171826984#2 195401006 195401017#5 139877314#1 100405009#1 100405009#2 100405009#3 100405009#4 305093247#0 305093247#2"/>
    </vehicle>
    <vehicle id="veh23" type="veh_passenger" depart="291.97" departLane="best">
        <route edges="-454285423#0 4610351#0 4610351#1 30721660#4 4610362#0 4610362#1 4610362#2 4610362#3 4610362#4 4610362#5 30721662#0 30721662#1 30721662#2 30721662#3 831659093#0 831659093#1 23809670#1 23809670#2 23809670#3 28016312#0 28016312#1 156364556#1 202157002#1 202157002#2 24913519#1 24913519#2 541763975 202156995#0 202156995#1 4067932#1 339201219 -23121445#5 -23121445#4 -23121445#3 -23121445#2 -23121445#1 -23121445#0 202156991#0 202156991#1 202156991#2"/>
    </vehicle>
    <vehicle id="veh25" type="veh_passenger" depart="317.36" departLane="best">
        <route edges="490365295#0 490365295#1 -156364570#3 -156364570#1 -156364570#0 -77348147 -387892378 -370359204#1 -370359204#0 -743631784 -316746323#2 -316746323#0 46140376#0 46140376#1 46140376#2 -84960597#1 -84960597#0 -36892597#1 4610355"/>
    </vehicle>
    <vehicle id="veh26" type="veh_passenger" depart="330.05" departLane="best">
        <route edges="171826984#2 195401006 195401017#5 139877314#1 112128419#1 112128419#2 415280722 195401013#2 195401013#3 24914992#1 171826985#1 171826985#3 -534588621#1 -534588621#0 606078071#0 606078071#3 328920970 751595929#0 751595929#1 194962375#1 194962375#2 -128396190#4 -128396190#3 128396190#3"/>
    </vehicle>
    <vehicle id="veh27" type="veh_passenger" depart="342.74" departLane="best">
        <route edges="-743631784 -316746323#2 316746323#1 743631784 370359204#0 370359204#1 370359204#2 77348147 156364570#0 156364570#1 156364570#2 156364556#1 202157002#1 202157002#2 24913519#1 24913519#2 541763975 202156995#0 202156995#1 4067932#1 339201219 541763974 61584187#1 61584187#2 61584187#3"/>
    </vehicle>
    <vehicle id="veh28" type="veh_passenger" depart="355.44" departLane="best" departSpeed="max">
        <route edges="54048862#0 54048862#2 831694400 23013165#0 23013165#1 23013165#2 4611698#1 202156994#0 72157174#1 171826984#2 195401006 195401017#5 139877314#1 19002403#1 523630409 19002357#1"/>
    </vehicle>
    <vehicle id="veh29" type="veh_passenger" depart="368.13" departLane="best" departSpeed="max">
        <route edges="309155392 195407521 309147331#0 344594962 312357351#0 312357351#1 309479676 128396190#0 128396190#1 128396190#2 128396190#3 128396190#4 -194962375#2 -194962375#1 -194962375#0 -751595929#0 61583424#0 61583424#1 534588621#0 534588621#1 24913519#1 24913519#2 541763975 202156995#0 202156995#1"/>
    </vehicle>
    <vehicle id="veh30" type="veh_passenger" depart="380.83" departLane="best" departSpeed="max">
        <route edges="606078066#0 72157172 61583424#0 61583424#1 534588621#0 534588621#1 4773465#1 4773465#2 4773465#3 490365295#0 490365295#1 -156364570#3 -156364570#1 -156364570#0 -77348147 25294728 234463931#1 234463931#2 234463931#3 234463931#4 234463931#5 234463931#6 234463928#1 188914559 23813206#0 23813206#1 23813206#2"/>
    </vehicle>
    <vehicle id="veh31" type="veh_passenger" depart="393.52" departLane="best">
        <route edges="301167584#0 112128419#1 112128419#2 415280722 195401013#2 195401013#3 24914992#1 171826985#1 171826985#3 -534588621#1 -534588621#0 606078071#0"/>
    </vehicle>
    <vehicle id="veh32" type="veh_passenger" depart="406.22" departLane="best">
        <route edges="202156995#1 4067932#1 339201219 831694400 23013165#0 23013165#1 23013165#2 4611698#1 202156994#0 72157174#1 171826984#2 195401006 195401017#5 139877314#1 100405009#1 100405009#2 100405009#3 100405009#4"/>
    </vehicle>
    <vehicle id="veh33" type="veh_passenger" depart="418.91" departLane="best">
        <route edges="84960597#1 83517332#1 83517332#2 84960595 316746323#0 316746323#1 743631784 370359204#0 370359204#1 370359204#2 25294728"/>
    </vehicle>
    <vehicle id="veh34" type="veh_passenger" depart="431.60" departLane="best" departSpeed="max">
        <route edges="-24241762#2 -19002363#10 -19002363#6 -19002363#4 -19002363#3"/>
    </vehicle>
    <vehicle id="veh35" type="veh_passenger" depart="444.30" departLane="best">
        <route edges="-24993933#4 24993933#2 19002357#1 19002363#1 19002363#2 -55741054 -168942727#3 -168942727#2 -168942727#1 -168942727#0 -743631784 -316746323#2 -316746323#0 -84960595 183415643 46140382 30721660#0 30721660#1 30721660#2 30721660#3"/>
    </vehicle>
    <vehicle id="veh36" type="veh_passenger" depart="456.99" departLane="best" departSpeed="max">
        <route edges="454285423#0 -454285423#0 4610351#0 4610351#1 30721660#4 4610362#0 4610362#1 4610362#2 4610362#3 4610362#4 4610362#5 30721662#0 30721662#1 30721662#2 30721662#3 831659093#0 831659093#1 23809670#1 23809670#2 23809670#3 28016312#0 28016312#1 156364556#1 202157002#1 202157002#2 24913519#1 24913519#2 541763975 202156995#0 202156995#1 4067932#1 339201219 -23121445#5 -23121445#4 -23121445#3 -23121445#2 -23121445#1 -23121445#0 23121445#0"/>
    </vehicle>
    <vehicle id="veh38" type="veh_passenger" depart="482.38" departLane="best">
        <route edges="743631784 370359204#0 370359204#1 370359204#2 77348147 156364570#0 156364570#1 156364570#2 156364556#1 202157002#1 202157002#2 72157174#1 171826984#2 195401006 4790825#1"/>
    </vehicle>
    <vehicle id="veh41" type="veh_passenger" depart="520.46" departLane="best">
        <route edges="23809670#3 28016312#0 28016312#1 156364556#1 202157002#1 202157002#2 24913519#1 24913519#2 541763975 202156995#0 202156995#1 4067932#1 339201219 541763974 61584187#1 61584187#2 61584187#3"/>
    </vehicle>
    <vehicle id="veh42" type="veh_passenger" depart="533.16" departLane="best" departSpeed="max">
        <route edges="54048862#0 54048862#2 831694400 23013165#0 23013165#1 23013165#2 4611698#1 202156994#0 -534588621#1 -534588621#0 606078071#0 606078071#3 328920970 751595929#0 751595929#1 194962375#1 194962375#2 -128396190#4 -128396190#3 -128396190#2 -128396190#1 -128396190#0 128396190#0 128396190#1"/>
    </vehicle>
    <vehicle id="veh43" type="veh_passenger" depart="545.85" departLane="best" departSpeed="max">
        <route edges="24914141#0 318282850#2 19002403#1 523630409 19002357#1 19002363#1 19002363#2 -55741054"/>
    </vehicle>
    <vehicle id="veh46" type="veh_passenger" depart="583.94" departLane="best" departSpeed="max">
        <route edges="301241681#0 301241681#1 301241681#3 301241681#4 246052428 301167584#0 112128419#1 112128419#2 415280722 195401013#2 195401013#3 24914992#1 171826985#1 171826985#3 24913519#1 24913519#2 541763975 202156995#0 202156995#1 4067932#1 339201219 -23121445#5 -23121445#4 -23121445#3 -23121445#2 -23121445#1 -23121445#0 -339201177"/>
    </vehicle>
    <vehicle id="veh48" type="veh_passenger" depart="609.32" departLane="best">
        <route edges="-128396190#1 -128396190#0 128396190#0 128396190#1 128396190#2 128396190#3 128396190#4 -194962375#2 -194962375#1 -194962375#0 -751595929#0 61583424#0 61583424#1 534588621#0 534588621#1 4773465#1 4773465#2 4773465#3 490365295#0 490365295#1 -156364570#3 -156364570#1 -156364570#0 -77348147 25294728 234463931#1 234463931#2 234463931#3 234463931#4 234463931#5 234463931#6 234463928#1 55741054 19002363#3 19002363#4 19002363#6"/>
    </vehicle>
    <vehicle id="veh49" type="veh_passenger" depart="622.02" departLane="best">
        <route edges="-168942727#3 168942727#3 -62363401 -234463928#0 -234463931#5 -234463931#4 -234463931#3 -234463931#2 -234463931#1 -234463931#0 77348147 156364570#0 156364570#1 156364570#2 156364556#1 202157002#1 202157002#2 -534588621#1 -534588621#0 606078071#0 606078071#3 328920970 61583424#0 61583424#1"/>
    </vehicle>
    <vehicle id="veh50" type="veh_passenger" depart="634.71" departLane="best" departSpeed="max">
        <route edges="54048862#0 54048862#2 831694400 23013165#0 23013165#1 23013165#2 4611698#1 202156994#0 72157174#1 171826984#2 195401006 195401017#5 139877314#1 19002403#1 523630409 4613308#3"/>
    </vehicle>
    <vehicle id="veh51" type="veh_passenger" depart="647.41" departLane="best">
        <route edges="168942727#0 -168942727#0 370359204#0 370359204#1 370359204#2 77348147 156364570#0 156364570#1 156364570#2 156364556#1 202157002#1 202157002#2 -534588621#1 -534588621#0 606078071#0 606078071#3 328920970 751595929#0 751595929#1 194962375#1 194962375#2 -194962375#2"/>
    </vehicle>
    <vehicle id="veh55" type="veh_passenger" depart="698.18" departLane="best">
        <route edges="23013165#2 4611698#1 202156994#0 72157174#1 171826984#2 195401006 195401017#5 139877314#1 100405009#1 100405009#2 100405009#3"/>
    </vehicle>
    <vehicle id="veh56" type="veh_passenger" depart="710.88" departLane="best">
        <route edges="-534588621#0 534588621#0 534588621#1 4773465#1 4773465#2 4773465#3 490365295#0 490365295#1 -156364570#3 -156364570#1 -156364570#0 -77348147 -387892378 -370359204#1 -370359204#0 -743631784 -316746323#2 -316746323#0 -84960595 183415643"/>
    </vehicle>
    <vehicle id="veh58" type="veh_passenger" depart="736.27" departLane="best">
        <route edges="-25302636#1 -25294729#0 -156364570#0 -77348147 25294728 234463931#1 234463931#2 234463931#3 234463931#4 234463931#5 234463931#6 234463928#1 55741054 -19002363#2 -19002363#1 4613292#0 4613308#3 756306892 112128418#1"/>
    </vehicle>
    <vehicle id="veh59" type="veh_passenger" depart="748.96" departLane="best">
        <route edges="19002363#2 -19002363#2 -19002363#1 4613292#0 4613308#3 756306892 100405009#1 100405009#2 100405009#3 100405009#4 305093247#0"/>
    </vehicle>
    <vehicle id="veh60" type="veh_passenger" depart="761.65" departLane="best">
        <route edges="-84960597#1 -84960597#0 11103418 23809678#1 23809678#4 -19002363#10 -19002363#6 -19002363#4 -19002363#3 -19002363#2 -19002363#1 4613292#0 4613308#3 756306892 100405009#1 100405009#2 100405009#3 100405009#4"/>
    </vehicle>
    <vehicle id="veh61" type="veh_passenger" depart="774.35" departLane="best">
        <route edges="-234463931#5 -234463931#4 -234463931#3 -234463931#2 -234463931#1 -234463931#0 -387892378 -370359204#1 -370359204#0 -743631784 -316746323#2 -316746323#0 -84960595 183415643 46140382 30721660#0 30721660#1 30721660#2 30721660#3 30721660#4 4610362#0 4610362#1 4610362#2 4610362#3 4610362#4 4610362#5 30721662#0"/>
    </vehicle>
    <vehicle id="veh62" type="veh_passenger" depart="787.04" departLane="best">
        <route edges="-84960597#1 84960597#1 83517332#1 83517332#2 84960595 316746323#0 316746323#1 743631784 370359204#0 370359204#1 370359204#2 77348147 156364570#0 156364570#1 156364570#2 156364556#1 202157002#1 202157002#2 -534588621#1 -534588621#0 606078071#0 606078071#3 61583423#0"/>
    </vehicle>
    <vehicle id="veh67" type="veh_passenger" depart="850.51" departLane="best">
        <route edges="246052428 301167584#0 112128419#1 112128419#2 -24990040 -188914559 -168942727#3 -168942727#2 -168942727#1 -168942727#0 -743631784 -316746323#2 -316746323#0 -84960595 183415643 46140382 30721660#0 30721660#1 30721660#2 30721660#3 30721660#4 4610362#0 4610362#1 4610362#2 4610362#3"/>
    </vehicle>
    <vehicle id="veh68" type="veh_passenger" depart="863.21" departLane="best">
        <route edges="4610362#5 30721662#0 30721662#1 30721662#2 30721662#3 831659093#0 831659093#1 23809670#1 23809670#2 23809670#3 28016312#0 28016312#1 -156364570#3 -156364570#1 -156364570#0 -77348147"/>
    </vehicle>
    <vehicle id="veh69" type="veh_passenger" depart="875.90" departLane="best" departSpeed="max">
        <route edges="-24241762#2 -19002363#10 -19002363#6 -19002363#4 -19002363#3 -55741054 -62363401 -234463928#0 -234463931#5 -234463931#4 -234463931#3 -234463931#2 -234463931#1 -234463931#0 77348147 156364570#0 156364570#1 156364570#2 156364556#1 202157002#1 202157002#2 24913519#1 24913519#2 541763975 202156995#0 202156995#1 4067932#1 339201219 -23121445#5 23121445#5"/>
    </vehicle>
    <vehicle id="veh70" type="veh_passenger" depart="888.60" departLane="best">
        <route edges="23013165#2 4611698#1 202156994#0 4773465#1 4773465#2 4773465#3 490365295#0 490365295#1 -156364570#3 -156364570#1 -156364570#0 -77348147 25294728 234463931#1 234463931#2 234463931#3 234463931#4 234463931#5 234463931#6 234463928#1 188914559 23813206#0 23813206#1 23813206#2"/>
    </vehicle>
    <vehicle id="veh71" type="veh_passenger" depart="901.29" departLane="best">
        <route edges="831694400 23013165#0 23013165#1 23013165#2 4611698#1 202156994#0 4773465#1 4773465#2 4773465#3 490365295#0 490365295#1 -156364570#3 -156364570#1 -156364570#0 -77348147 25294728 234463931#1 234463931#2 234463931#3 234463931#4 234463931#5 234463931#6 234463928#1 188914559 -24241797#3 -24241797#2"/>
    </vehicle>
    <vehicle id="veh72" type="veh_passenger" depart="913.99" departLane="best">
        <route edges="202157002#1 202157002#2 72157174#1 171826984#2 195401006"/>
    </vehicle>
    <vehicle id="veh73" type="veh_passenger" depart="926.68" departLane="best">
        <route edges="523630409 4613308#3 756306892 112128418#1 112128418#2 112128418#3"/>
    </vehicle>
    <vehicle id="veh74" type="veh_passenger" depart="939.37" departLane="best" departSpeed="max">
        <route edges="-4613293 -55741054 -62363401 -234463928#0 -234463931#5 -234463931#4 -234463931#3 -234463931#2 -234463931#1 -234463931#0 77348147 156364570#0 156364570#1 156364570#2 -28016312#3 -28016312#0 -23809670#3 -23809670#2 23809670#2"/>
    </vehicle>
    <vehicle id="veh76" type="veh_passenger" depart="964.76" departLane="best">
        <route edges="234463931#3 -234463931#3 -234463931#2 -234463931#1 -234463931#0 77348147 156364570#0 156364570#1 156364570#2 156364556#1 202157002#1 202157002#2 72157174#1 171826984#2 195401006 4790825#1"/>
    </vehicle>
    <vehicle id="veh78" type="veh_passenger" depart="990.15" departLane="best">
        <route edges="902316106#1 -902316106#1 195407521 309147331#0 344594962 312357351#0 312357351#1 309479676 128396190#0 128396190#1 128396190#2 128396190#3 128396190#4 -194962375#2 -194962375#1 -194962375#0 -751595929#0 61583424#0 61583424#1 534588621#0 534588621#1 4773465#1 4773465#2 4773465#3 490365295#0 490365295#1 -156364570#3 -156364570#1 -156364570#0 -77348147 -387892378 -370359204#1 -370359204#0 -743631784 -316746323#2 -316746323#0 46140376#0 46140376#1"/>
    </vehicle>
    <vehicle id="veh80" type="veh_passenger" depart="1015.54" departLane="best" departSpeed="max">
        <route edges="24914141#0 318282850#2 100405009#1 100405009#2 100405009#3"/>
    </vehicle>
    <vehicle id="veh81" type="veh_passenger" depart="1028.23" departLane="best">
        <route edges="195407521 309147331#0 344594962 312357351#0 312357351#1 309479676 128396190#0 128396190#1 128396190#2 128396190#3 128396190#4 -194962375#2 -194962375#1 -194962375#0 -751595929#0 61583424#0 61583424#1 534588621#0 534588621#1 24913519#1 24913519#2 541763975 202156995#0 202156995#1 4067932#1 339201219 831694400"/>
    </vehicle>
    <vehicle id="veh82" type="veh_passenger" depart="1040.93" departLane="best">
        <route edges="112128419#1 112128419#2 -24990040 -188914559 -168942727#3 -168942727#2 -168942727#1 -168942727#0 -743631784 -316746323#2 -316746323#0 -84960595 183415643 46140382 30721660#0 30721660#1 30721660#2 30721660#3 30721660#4 4610362#0 4610362#1 4610362#2 4610362#3"/>
    </vehicle>
    <vehicle id="veh83" type="veh_passenger" depart="1053.62" departLane="best">
        <route edges="23809678#1 23809678#4 -19002363#10 -19002363#6 -19002363#4 -19002363#3 -55741054 -62363401 -234463928#0 -234463931#5 -234463931#4 -234463931#3 -234463931#2 -234463931#1 -234463931#0 77348147 156364570#0 156364570#1 156364570#2 156364556#1 202157002#1 202157002#2 24913519#1 24913519#2 541763975 202156995#0 202156995#1 4067932#1 339201219 -23121445#5 -23121445#4 -23121445#3 -23121445#2 -23121445#1 -23121445#0 23121445#0"/>
    </vehicle>
    <vehicle id="veh85" type="veh_passenger" depart="1079.01" departLane="best" departSpeed="max">
        <route edges="289666657 289966281 344594961 33301683"/>
    </vehicle>
    <vehicle id="veh86" type="veh_passenger" depart="1091.70" departLane="best">
        <route edges="-36892597#0 -24241790#2 -19002363#10 -19002363#6 -19002363#4 -19002363#3 -55741054 -62363401 -234463928#0 -234463931#5 -234463931#4 -234463931#3 -234463931#2 -234463931#1 -234463931#0 77348147 156364570#0 156364570#1 156364570#2 156364556#1 202157002#1 202157002#2 72157174#1 171826984#2"/>
    </vehicle>
    <vehicle id="veh90" type="veh_passenger" depart="1142.48" departLane="best" departSpeed="max">
        <route edges="24914141#0 318282850#2 112128419#1 112128419#2 415280722 195401013#2 195401013#3 24914992#1 171826985#1 171826985#3 72157174#1 171826984#2 195401006 4790825#1"/>
    </vehicle>
    <vehicle id="veh92" type="veh_passenger" depart="1167.87" departLane="best">
        <route edges="-23813206#1 -23813206#0 24990040 415280722 195401013#2 195401013#3 24914992#1 171826985#1 171826985#3 -534588621#1 -534588621#0 606078071#0 606078071#3 -562707499 -751595928#1"/>
    </vehicle>
    <vehicle id="veh94" type="veh_passenger" depart="1193.26" departLane="best" departSpeed="max">
        <route edges="54048862#0 54048862#2 831694400 23013165#0 23013165#1 23013165#2 4611698#1 202156994#0 72157174#1 171826984#2 195401006 195401017#5 139877314#1 112128418#1 112128418#2 112128418#3"/>
    </vehicle>
    <vehicle id="veh96" type="veh_passenger" depart="1218.65" departLane="best" departSpeed="max">
        <route edges="24993933#0 24993933#1 24993933#2 4613308#3 756306892 112128419#1 112128419#2 415280722 195401013#2 195401013#3 24914992#1 171826985#1 171826985#3 24913519#1 24913519#2 541763975 202156995#0 202156995#1 4067932#1 339201219 541763974 61584187#1"/>
    </vehicle>
    <vehicle id="veh99" type="veh_passenger" depart="1256.73" departLane="best" departSpeed="max">
        <route edges="309155392 195407521 309147331#0 344594962 312357351#0 312357351#1 309479676 128396190#0 128396190#1 128396190#2 128396190#3 128396190#4 -194962375#2 -194962375#1 -194962375#0 -751595929#0 61583424#0 61583424#1 534588621#0 534588621#1 72157174#1 171826984#2 195401006 195401017#5 139877314#1 112128419#1 112128419#2 415280722 195401013#2 195401013#3 24914992#1 171826985#1"/>
    </vehicle>
    <vehicle id="veh100" type="veh_passenger" depart="1269.42" departLane="best">
        <route edges="902316106#1 -902316106#1 195407521 309147331#0 344594962 312357351#0 312357351#1 309479676 128396190#0 128396190#1 128396190#2 128396190#3 128396190#4 -194962375#2 -194962375#1 -194962375#0 -751595929#0 61583424#0 61583424#1 534588621#0 534588621#1 4773465#1 4773465#2 4773465#3 490365295#0 490365295#1 -156364570#3 -156364570#1 -156364570#0 -77348147 -387892378 -370359204#1 -370359204#0 -743631784 -316746323#2 -316746323#0 46140376#0 46140376#1 46140376#2 -84960597#1 -84960597#0 84960597#0"/>
    </vehicle>
    <vehicle id="veh101" type="veh_passenger" depart="1282.12" departLane="best">
        <route edges="-23809670#1 23809670#1 23809670#2 23809670#3 28016312#0 28016312#1 156364556#1 202157002#1 202157002#2 72157174#1 171826984#2 195401006 195401017#5 139877314#1 100405009#1 100405009#2 100405009#3"/>
    </vehicle>
    <vehicle id="veh102" type="veh_passenger" depart="1294.81" departLane="best">
        <route edges="112128419#1 112128419#2 415280722 195401013#2 195401013#3 24914992#1 171826985#1 171826985#3 24913519#1 24913519#2 541763975 202156995#0 202156995#1 4067932#1 339201219 541763974 61584187#1"/>
    </vehicle>
    <vehicle id="veh103" type="veh_passenger" depart="1307.51" departLane="best">
        <route edges="195401017#5 139877314#1 112128419#1 112128419#2 -24990040 -188914559 -62363401 -234463928#0 -234463931#5 -234463931#4 -234463931#3 -234463931#2 -234463931#1 -234463931#0 -387892378 -370359204#1 -370359204#0"/>
    </vehicle>
    <vehicle id="veh104" type="veh_passenger" depart="1320.20" departLane="best" departSpeed="max">
        <route edges="301241681#0 301241681#1 301241681#3 301241681#4 246052428 301167584#0 112128419#1 112128419#2 415280722 195401013#2 195401013#3 24914992#1 171826985#1 171826985#3 24913519#1 24913519#2 541763975 202156995#0 202156995#1 4067932#1 339201219 831694400"/>
    </vehicle>
    <vehicle id="veh106" type="veh_passenger" depart="1345.59" departLane="best" departSpeed="max">
        <route edges="309155392 195407521 309147331#0 344594962 312357351#0 312357351#1 309479676 128396190#0 128396190#1 128396190#2 128396190#3 128396190#4 -194962375#2 -194962375#1 -194962375#0 -751595929#0 61583424#0 61583424#1 534588621#0 534588621#1 24913519#1 24913519#2 541763975 202156995#0 202156995#1 4067932#1 339201219 541763974 61584187#1 61584187#2"/>
    </vehicle>
    <vehicle id="veh109" type="veh_passenger" depart="1383.67" departLane="best">
        <route edges="312357351#1 309479676 128396190#0 128396190#1 128396190#2 128396190#3 128396190#4 -194962375#2 -194962375#1 -194962375#0 -751595929#0 61583424#0 61583424#1 534588621#0 534588621#1 72157174#1 171826984#2 195401006 195401017#5 139877314#1 100405009#1"/>
    </vehicle>
    <vehicle id="veh110" type="veh_passenger" depart="1396.37" departLane="best">
        <route edges="30721660#0 30721660#1 30721660#2 30721660#3 30721660#4 4610362#0 4610362#1 4610362#2 4610362#3 4610362#4 4610362#5 30721662#0 30721662#1 30721662#2 30721662#3 831659093#0 831659093#1 23809670#1 23809670#2 23809670#3 28016312#0 28016312#1 156364556#1 202157002#1 202157002#2 -534588621#1 -534588621#0 606078071#0 606078071#3 328920970 751595929#0 751595929#1 194962375#1 194962375#2 -128396190#4 -128396190#3 -128396190#2 -128396190#1 -128396190#0 128396190#0 128396190#1"/>
    </vehicle>
    <vehicle id="veh111" type="veh_passenger" depart="1409.06" departLane="best" departSpeed="max">
        <route edges="24914141#0 318282850#2 112128419#1 112128419#2 415280722 195401013#2 195401013#3 24914992#1 171826985#1 171826985#3 -534588621#1 -534588621#0 606078071#0 606078071#3 61583423#0"/>
    </vehicle>
    <vehicle id="veh112" type="veh_passenger" depart="1421.76" departLane="best">
        <route edges="490365295#1 -156364570#3 -156364570#1 -156364570#0 -77348147 25294728 234463931#1 234463931#2 234463931#3 234463931#4 234463931#5 234463931#6 234463928#1 188914559 23813206#0 -23813206#0"/>
    </vehicle>
    <vehicle id="veh113" type="veh_passenger" depart="1434.45" departLane="best">
        <route edges="23013165#2 4611698#1 202156994#0 72157174#1 171826984#2 195401006 195401017#5 139877314#1"/>
    </vehicle>
    <vehicle id="veh114" type="veh_passenger" depart="1447.14" departLane="best">
        <route edges="-128396190#2 128396190#2 128396190#3 128396190#4 -194962375#2 -194962375#1 -194962375#0 -751595929#0 61583424#0 61583424#1 534588621#0 534588621#1 4773465#1 4773465#2 4773465#3 490365295#0 490365295#1 -156364570#3 -156364570#1 -156364570#0 -77348147 -387892378 -370359204#1 -370359204#0 -743631784 -316746323#2 -316746323#0 46140376#0 46140376#1 46140376#2 -84960597#1 -84960597#0 -36892597#1 4610355"/>
    </vehicle>
    <vehicle id="veh115" type="veh_passenger" depart="1459.84" departLane="best">
        <route edges="30721660#2 30721660#3 30721660#4 4610362#0 4610362#1 4610362#2 4610362#3 4610362#4 4610362#5 30721662#0 30721662#1 30721662#2 30721662#3 831659093#0 831659093#1 23809670#1 23809670#2 23809670#3 28016312#0 28016312#1 156364556#1 202157002#1 202157002#2 -534588621#1 -534588621#0 606078071#0 606078071#3 328920970 751595929#0 751595929#1 194962375#1 194962375#2 -128396190#4 -128396190#3 -128396190#2 -128396190#1 -128396190#0 128396190#0"/>
    </vehicle>
    <vehicle id="veh117" type="veh_passenger" depart="1485.23" departLane="best">
        <route edges="23121445#1 23121445#2 23121445#3 23121445#4 23121445#5 831694400 23013165#0 23013165#1 23013165#2 4611698#1 202156994#0 -534588621#1 -534588621#0 606078071#0 606078071#3 328920970 751595929#0 751595929#1 194962375#1 194962375#2 -128396190#4 -128396190#3 -128396190#2 -128396190#1"/>
    </vehicle>
    <vehicle id="veh120" type="veh_passenger" depart="1523.31" departLane="best">
        <route edges="168942727#0 -168942727#0 370359204#0 370359204#1 370359204#2 77348147 156364570#0 156364570#1 156364570#2 156364556#1 202157002#1 202157002#2 -534588621#1 -534588621#0 606078071#0 606078071#3"/>
    </vehicle>
    <vehicle id="veh121" type="veh_passenger" depart="1536.00" departLane="best">